# Generated with D-HyDAMO in delftd3fmpy v.2.0.3 on 2023-03-02T12:34:45.808439Z.
# Tested and compatible with D-Flow FM Deltares, D-Flow FM Version 5.00.024.74498M, DIMRset Deltares, DIMR_EXE Version 2.00.00.140737 (Win64) (Win64) and D-HYDRO suite 1D2D D-HYDRO Suite 2022.03 1D2D,.
# 
[General]
fileVersion = 1.01
fileType = boundConds

[Forcing]
name       = 179556.917150_416642.991542
function   = constant
quantity   = waterlevelbnd
unit       = m
7.15

[Forcing]
name       = 1057660L
function   = timeseries
timeInterpolation = linear
quantity   = time
unit       = minutes since 2010-11-09 00:00:00
quantity   = lateral_discharge
unit       = m3/s
    0.000000     0.000748 
   60.000000     0.000748 
  120.000000     0.000748 
  180.000000     0.000745 
  240.000000     0.000745 
  300.000000     0.000745 
  360.000000     0.000742 
  420.000000     0.000742 
  480.000000     0.000742 
  540.000000     0.000739 
  600.000000     0.000739 
  660.000000     0.000739 
  720.000000     0.000736 
  780.000000     0.000736 
  840.000000     0.000736 
  900.000000     0.000736 
  960.000000     0.000733 
 1020.000000     0.000733 
 1080.000000     0.000733 
 1140.000000     0.000733 
 1200.000000     0.000730 
 1260.000000     0.000730 
 1320.000000     0.000730 
 1380.000000     0.000730 
 1440.000000     0.000727 
 1500.000000     0.000727 
 1560.000000     0.000727 
 1620.000000     0.000727 
 1680.000000     0.000727 
 1740.000000     0.000724 
 1800.000000     0.000724 
 1860.000000     0.000724 
 1920.000000     0.000724 
 1980.000000     0.000721 
 2040.000000     0.000721 
 2100.000000     0.000721 
 2160.000000     0.000721 
 2220.000000     0.000721 
 2280.000000     0.000718 
 2340.000000     0.000718 
 2400.000000     0.000718 
 2460.000000     0.000718 
 2520.000000     0.000718 
 2580.000000     0.000715 
 2640.000000     0.000715 
 2700.000000     0.000715 
 2760.000000     0.000715 
 2820.000000     0.000715 
 2880.000000     0.000715 
 2940.000000     0.000925 
 3000.000000     0.001148 
 3060.000000     0.001367 
 3120.000000     0.001583 
 3180.000000     0.001799 
 3240.000000     0.002012 
 3300.000000     0.002223 
 3360.000000     0.002433 
 3420.000000     0.002640 
 3480.000000     0.002844 
 3540.000000     0.003045 
 3600.000000     0.003244 
 3660.000000     0.003442 
 3720.000000     0.003637 
 3780.000000     0.003829 
 3840.000000     0.004021 
 3900.000000     0.004207 
 3960.000000     0.004394 
 4020.000000     0.004577 
 4080.000000     0.004757 
 4140.000000     0.004937 
 4200.000000     0.005114 
 4260.000000     0.005288 
 4320.000000     0.005460 
 4380.000000     0.005631 
 4440.000000     0.005799 
 4500.000000     0.005964 
 4560.000000     0.006129 
 4620.000000     0.006291 
 4680.000000     0.006450 
 4740.000000     0.006607 
 4800.000000     0.006763 
 4860.000000     0.006919 
 4920.000000     0.007069 
 4980.000000     0.007219 
 5040.000000     0.007366 
 5100.000000     0.007513 
 5160.000000     0.007657 
 5220.000000     0.007802 
 5280.000000     0.007943 
 5340.000000     0.008081 
 5400.000000     0.008219 
 5460.000000     0.008354 
 5520.000000     0.008486 
 5580.000000     0.008618 
 5640.000000     0.008750 
 5700.000000     0.008880 
 5760.000000     0.009006 
 5820.000000     0.009132 
 5880.000000     0.009255 
 5940.000000     0.009378 
 6000.000000     0.009498 
 6060.000000     0.009618 
 6120.000000     0.009735 
 6180.000000     0.009852 
 6240.000000     0.009967 
 6300.000000     0.010081 
 6360.000000     0.010192 
 6420.000000     0.010303 
 6480.000000     0.010414 
 6540.000000     0.010522 
 6600.000000     0.010627 
 6660.000000     0.010732 
 6720.000000     0.010837 
 6780.000000     0.010942 
 6840.000000     0.011045 
 6900.000000     0.011144 
 6960.000000     0.011243 
 7020.000000     0.011342 
 7080.000000     0.011441 
 7140.000000     0.011537 
 7200.000000     0.011629 
 7260.000000     0.011332 
 7320.000000     0.011025 
 7380.000000     0.010728 
 7440.000000     0.010440 
 7500.000000     0.010161 
 7560.000000     0.009890 
 7620.000000     0.009629 
 7680.000000     0.009377 
 7740.000000     0.009131 
 7800.000000     0.008897 
 7860.000000     0.008665 
 7920.000000     0.008446 
 7980.000000     0.008233 
 8040.000000     0.008026 
 8100.000000     0.007828 
 8160.000000     0.007636 
 8220.000000     0.007449 
 8280.000000     0.007269 
 8340.000000     0.007095 
 8400.000000     0.006930 
 8460.000000     0.006765 
 8520.000000     0.006609 
 8580.000000     0.006459 
 8640.000000     0.006311 
 8700.000000     0.006170 
 8760.000000     0.006032 
 8820.000000     0.005900 
 8880.000000     0.005771 
 8940.000000     0.005648 
 9000.000000     0.005528 
 9060.000000     0.005411 
 9120.000000     0.005300 
 9180.000000     0.005192 
 9240.000000     0.005086 
 9300.000000     0.004984 
 9360.000000     0.004885 
 9420.000000     0.004792 
 9480.000000     0.004699 
 9540.000000     0.004609 
 9600.000000     0.004522 
 9660.000000     0.004438 
 9720.000000     0.004357 
 9780.000000     0.004279 
 9840.000000     0.004201 
 9900.000000     0.004129 
 9960.000000     0.004057 
10020.000000     0.003988 
10080.000000     0.003921 
10140.000000     0.003855 
10200.000000     0.003792 
10260.000000     0.003729 
10320.000000     0.003672 
10380.000000     0.003612 
10440.000000     0.003558 
10500.000000     0.003504 
10560.000000     0.003450 
10620.000000     0.003399 
10680.000000     0.003351 
10740.000000     0.003303 
10800.000000     0.003255 
10860.000000     0.003210 
10920.000000     0.003168 
10980.000000     0.003123 
11040.000000     0.003084 
11100.000000     0.003042 
11160.000000     0.003003 
11220.000000     0.002967 
11280.000000     0.002928 
11340.000000     0.002892 
11400.000000     0.002859 
11460.000000     0.002823 
11520.000000     0.002792 
11580.000000     0.002759 
11640.000000     0.002729 
11700.000000     0.002696 
11760.000000     0.002669 
11820.000000     0.002639 
11880.000000     0.002612 
11940.000000     0.002585 
12000.000000     0.002558 
12060.000000     0.002534 
12120.000000     0.002510 
12180.000000     0.002486 
12240.000000     0.002462 
12300.000000     0.002438 
12360.000000     0.002417 
12420.000000     0.002396 
12480.000000     0.002372 
12540.000000     0.002354 
12600.000000     0.002333 
12660.000000     0.002312 
12720.000000     0.002294 
12780.000000     0.002276 
12840.000000     0.002258 
12900.000000     0.002240 
12960.000000     0.002225 
13020.000000     0.002207 
13080.000000     0.002192 
13140.000000     0.002174 
13200.000000     0.002159 
13260.000000     0.002144 
13320.000000     0.002129 
13380.000000     0.002117 
13440.000000     0.002102 
13500.000000     0.002087 
13560.000000     0.002075 
13620.000000     0.002063 
13680.000000     0.002051 
13740.000000     0.002036 
13800.000000     0.002024 
13860.000000     0.002012 
13920.000000     0.002003 
13980.000000     0.001991 
14040.000000     0.001979 
14100.000000     0.001970 
14160.000000     0.001958 
14220.000000     0.001949 
14280.000000     0.001937 
14340.000000     0.001928 
14400.000000     0.001919 
14460.000000     0.001910 
14520.000000     0.001901 
14580.000000     0.001892 
14640.000000     0.001883 
14700.000000     0.001874 
14760.000000     0.001865 
14820.000000     0.001859 
14880.000000     0.001850 
14940.000000     0.001844 
15000.000000     0.001835 
15060.000000     0.001826 
15120.000000     0.001820 
15180.000000     0.001814 
15240.000000     0.001805 
15300.000000     0.001799 
15360.000000     0.001793 
15420.000000     0.001784 
15480.000000     0.001778 
15540.000000     0.001772 
15600.000000     0.001766 
15660.000000     0.001760 
15720.000000     0.001754 
15780.000000     0.001748 
15840.000000     0.001742 
15900.000000     0.001736 
15960.000000     0.001730 
16020.000000     0.001727 
16080.000000     0.001721 
16140.000000     0.001715 
16200.000000     0.001709 
16260.000000     0.001706 
16320.000000     0.001700 
16380.000000     0.001694 
16440.000000     0.001691 
16500.000000     0.001685 
16560.000000     0.001679 
16620.000000     0.001676 
16680.000000     0.001670 
16740.000000     0.001667 
16800.000000     0.001661 
16860.000000     0.001658 
16920.000000     0.001655 
16980.000000     0.001649 
17040.000000     0.001646 
17100.000000     0.001640 
17160.000000     0.001637 
17220.000000     0.001634 
17280.000000     0.001630 
17340.000000     0.001624 
17400.000000     0.001621 
17460.000000     0.001618 
17520.000000     0.001612 
17580.000000     0.001609 
17640.000000     0.001606 
17700.000000     0.001603 
17760.000000     0.001600 
17820.000000     0.001597 
17880.000000     0.001594 
17940.000000     0.001588 
18000.000000     0.001585 
18060.000000     0.001582 
18120.000000     0.001579 
18180.000000     0.001576 
18240.000000     0.001573 
18300.000000     0.001570 
18360.000000     0.001567 
18420.000000     0.001564 
18480.000000     0.001561 
18540.000000     0.001558 
18600.000000     0.001555 
18660.000000     0.001552 

[Forcing]
name       = 1055340L
function   = timeseries
timeInterpolation = linear
quantity   = time
unit       = minutes since 2010-11-09 00:00:00
quantity   = lateral_discharge
unit       = m3/s
    0.000000     0.000547 
   60.000000     0.000547 
  120.000000     0.000547 
  180.000000     0.000545 
  240.000000     0.000545 
  300.000000     0.000545 
  360.000000     0.000543 
  420.000000     0.000543 
  480.000000     0.000543 
  540.000000     0.000541 
  600.000000     0.000541 
  660.000000     0.000541 
  720.000000     0.000538 
  780.000000     0.000538 
  840.000000     0.000538 
  900.000000     0.000538 
  960.000000     0.000536 
 1020.000000     0.000536 
 1080.000000     0.000536 
 1140.000000     0.000536 
 1200.000000     0.000534 
 1260.000000     0.000534 
 1320.000000     0.000534 
 1380.000000     0.000534 
 1440.000000     0.000532 
 1500.000000     0.000532 
 1560.000000     0.000532 
 1620.000000     0.000532 
 1680.000000     0.000532 
 1740.000000     0.000530 
 1800.000000     0.000530 
 1860.000000     0.000530 
 1920.000000     0.000530 
 1980.000000     0.000527 
 2040.000000     0.000527 
 2100.000000     0.000527 
 2160.000000     0.000527 
 2220.000000     0.000527 
 2280.000000     0.000525 
 2340.000000     0.000525 
 2400.000000     0.000525 
 2460.000000     0.000525 
 2520.000000     0.000525 
 2580.000000     0.000523 
 2640.000000     0.000523 
 2700.000000     0.000523 
 2760.000000     0.000523 
 2820.000000     0.000523 
 2880.000000     0.000523 
 2940.000000     0.000677 
 3000.000000     0.000840 
 3060.000000     0.001000 
 3120.000000     0.001158 
 3180.000000     0.001317 
 3240.000000     0.001473 
 3300.000000     0.001626 
 3360.000000     0.001780 
 3420.000000     0.001932 
 3480.000000     0.002081 
 3540.000000     0.002228 
 3600.000000     0.002373 
 3660.000000     0.002518 
 3720.000000     0.002661 
 3780.000000     0.002802 
 3840.000000     0.002942 
 3900.000000     0.003079 
 3960.000000     0.003215 
 4020.000000     0.003349 
 4080.000000     0.003481 
 4140.000000     0.003613 
 4200.000000     0.003742 
 4260.000000     0.003870 
 4320.000000     0.003995 
 4380.000000     0.004120 
 4440.000000     0.004243 
 4500.000000     0.004364 
 4560.000000     0.004485 
 4620.000000     0.004604 
 4680.000000     0.004720 
 4740.000000     0.004834 
 4800.000000     0.004948 
 4860.000000     0.005063 
 4920.000000     0.005173 
 4980.000000     0.005282 
 5040.000000     0.005390 
 5100.000000     0.005498 
 5160.000000     0.005603 
 5220.000000     0.005709 
 5280.000000     0.005812 
 5340.000000     0.005913 
 5400.000000     0.006014 
 5460.000000     0.006113 
 5520.000000     0.006210 
 5580.000000     0.006306 
 5640.000000     0.006403 
 5700.000000     0.006497 
 5760.000000     0.006590 
 5820.000000     0.006682 
 5880.000000     0.006772 
 5940.000000     0.006862 
 6000.000000     0.006950 
 6060.000000     0.007038 
 6120.000000     0.007124 
 6180.000000     0.007209 
 6240.000000     0.007293 
 6300.000000     0.007376 
 6360.000000     0.007458 
 6420.000000     0.007539 
 6480.000000     0.007620 
 6540.000000     0.007699 
 6600.000000     0.007776 
 6660.000000     0.007853 
 6720.000000     0.007930 
 6780.000000     0.008007 
 6840.000000     0.008082 
 6900.000000     0.008154 
 6960.000000     0.008227 
 7020.000000     0.008299 
 7080.000000     0.008372 
 7140.000000     0.008442 
 7200.000000     0.008509 
 7260.000000     0.008292 
 7320.000000     0.008068 
 7380.000000     0.007850 
 7440.000000     0.007639 
 7500.000000     0.007435 
 7560.000000     0.007237 
 7620.000000     0.007046 
 7680.000000     0.006861 
 7740.000000     0.006681 
 7800.000000     0.006510 
 7860.000000     0.006341 
 7920.000000     0.006180 
 7980.000000     0.006024 
 8040.000000     0.005873 
 8100.000000     0.005728 
 8160.000000     0.005587 
 8220.000000     0.005451 
 8280.000000     0.005319 
 8340.000000     0.005192 
 8400.000000     0.005071 
 8460.000000     0.004950 
 8520.000000     0.004836 
 8580.000000     0.004726 
 8640.000000     0.004618 
 8700.000000     0.004515 
 8760.000000     0.004414 
 8820.000000     0.004317 
 8880.000000     0.004223 
 8940.000000     0.004133 
 9000.000000     0.004045 
 9060.000000     0.003959 
 9120.000000     0.003878 
 9180.000000     0.003799 
 9240.000000     0.003722 
 9300.000000     0.003647 
 9360.000000     0.003575 
 9420.000000     0.003507 
 9480.000000     0.003438 
 9540.000000     0.003373 
 9600.000000     0.003309 
 9660.000000     0.003247 
 9720.000000     0.003188 
 9780.000000     0.003131 
 9840.000000     0.003074 
 9900.000000     0.003021 
 9960.000000     0.002968 
10020.000000     0.002918 
10080.000000     0.002869 
10140.000000     0.002821 
10200.000000     0.002775 
10260.000000     0.002729 
10320.000000     0.002687 
10380.000000     0.002643 
10440.000000     0.002604 
10500.000000     0.002564 
10560.000000     0.002525 
10620.000000     0.002487 
10680.000000     0.002452 
10740.000000     0.002417 
10800.000000     0.002382 
10860.000000     0.002349 
10920.000000     0.002318 
10980.000000     0.002285 
11040.000000     0.002256 
11100.000000     0.002226 
11160.000000     0.002197 
11220.000000     0.002171 
11280.000000     0.002142 
11340.000000     0.002116 
11400.000000     0.002092 
11460.000000     0.002065 
11520.000000     0.002043 
11580.000000     0.002019 
11640.000000     0.001997 
11700.000000     0.001973 
11760.000000     0.001953 
11820.000000     0.001931 
11880.000000     0.001912 
11940.000000     0.001892 
12000.000000     0.001872 
12060.000000     0.001854 
12120.000000     0.001837 
12180.000000     0.001819 
12240.000000     0.001802 
12300.000000     0.001784 
12360.000000     0.001769 
12420.000000     0.001753 
12480.000000     0.001736 
12540.000000     0.001723 
12600.000000     0.001707 
12660.000000     0.001692 
12720.000000     0.001679 
12780.000000     0.001665 
12840.000000     0.001652 
12900.000000     0.001639 
12960.000000     0.001628 
13020.000000     0.001615 
13080.000000     0.001604 
13140.000000     0.001591 
13200.000000     0.001580 
13260.000000     0.001569 
13320.000000     0.001558 
13380.000000     0.001549 
13440.000000     0.001538 
13500.000000     0.001527 
13560.000000     0.001518 
13620.000000     0.001509 
13680.000000     0.001501 
13740.000000     0.001490 
13800.000000     0.001481 
13860.000000     0.001472 
13920.000000     0.001466 
13980.000000     0.001457 
14040.000000     0.001448 
14100.000000     0.001441 
14160.000000     0.001433 
14220.000000     0.001426 
14280.000000     0.001417 
14340.000000     0.001411 
14400.000000     0.001404 
14460.000000     0.001397 
14520.000000     0.001391 
14580.000000     0.001384 
14640.000000     0.001378 
14700.000000     0.001371 
14760.000000     0.001364 
14820.000000     0.001360 
14880.000000     0.001353 
14940.000000     0.001349 
15000.000000     0.001342 
15060.000000     0.001336 
15120.000000     0.001332 
15180.000000     0.001327 
15240.000000     0.001321 
15300.000000     0.001316 
15360.000000     0.001312 
15420.000000     0.001305 
15480.000000     0.001301 
15540.000000     0.001296 
15600.000000     0.001292 
15660.000000     0.001288 
15720.000000     0.001283 
15780.000000     0.001279 
15840.000000     0.001274 
15900.000000     0.001270 
15960.000000     0.001266 
16020.000000     0.001263 
16080.000000     0.001259 
16140.000000     0.001255 
16200.000000     0.001250 
16260.000000     0.001248 
16320.000000     0.001244 
16380.000000     0.001239 
16440.000000     0.001237 
16500.000000     0.001233 
16560.000000     0.001228 
16620.000000     0.001226 
16680.000000     0.001222 
16740.000000     0.001219 
16800.000000     0.001215 
16860.000000     0.001213 
16920.000000     0.001211 
16980.000000     0.001206 
17040.000000     0.001204 
17100.000000     0.001200 
17160.000000     0.001197 
17220.000000     0.001195 
17280.000000     0.001193 
17340.000000     0.001189 
17400.000000     0.001186 
17460.000000     0.001184 
17520.000000     0.001180 
17580.000000     0.001178 
17640.000000     0.001176 
17700.000000     0.001173 
17760.000000     0.001171 
17820.000000     0.001169 
17880.000000     0.001167 
17940.000000     0.001162 
18000.000000     0.001160 
18060.000000     0.001158 
18120.000000     0.001156 
18180.000000     0.001154 
18240.000000     0.001151 
18300.000000     0.001149 
18360.000000     0.001147 
18420.000000     0.001145 
18480.000000     0.001143 
18540.000000     0.001140 
18600.000000     0.001138 
18660.000000     0.001136 

[Forcing]
name       = 1055935L
function   = timeseries
timeInterpolation = linear
quantity   = time
unit       = minutes since 2010-11-09 00:00:00
quantity   = lateral_discharge
unit       = m3/s
    0.000000     0.001377 
   60.000000     0.001377 
  120.000000     0.001377 
  180.000000     0.001372 
  240.000000     0.001372 
  300.000000     0.001372 
  360.000000     0.001366 
  420.000000     0.001366 
  480.000000     0.001366 
  540.000000     0.001361 
  600.000000     0.001361 
  660.000000     0.001361 
  720.000000     0.001355 
  780.000000     0.001355 
  840.000000     0.001355 
  900.000000     0.001355 
  960.000000     0.001349 
 1020.000000     0.001349 
 1080.000000     0.001349 
 1140.000000     0.001349 
 1200.000000     0.001344 
 1260.000000     0.001344 
 1320.000000     0.001344 
 1380.000000     0.001344 
 1440.000000     0.001338 
 1500.000000     0.001338 
 1560.000000     0.001338 
 1620.000000     0.001338 
 1680.000000     0.001338 
 1740.000000     0.001333 
 1800.000000     0.001333 
 1860.000000     0.001333 
 1920.000000     0.001333 
 1980.000000     0.001327 
 2040.000000     0.001327 
 2100.000000     0.001327 
 2160.000000     0.001327 
 2220.000000     0.001327 
 2280.000000     0.001322 
 2340.000000     0.001322 
 2400.000000     0.001322 
 2460.000000     0.001322 
 2520.000000     0.001322 
 2580.000000     0.001316 
 2640.000000     0.001316 
 2700.000000     0.001316 
 2760.000000     0.001316 
 2820.000000     0.001316 
 2880.000000     0.001317 
 2940.000000     0.001705 
 3000.000000     0.002114 
 3060.000000     0.002518 
 3120.000000     0.002916 
 3180.000000     0.003314 
 3240.000000     0.003707 
 3300.000000     0.004094 
 3360.000000     0.004481 
 3420.000000     0.004862 
 3480.000000     0.005238 
 3540.000000     0.005609 
 3600.000000     0.005974 
 3660.000000     0.006339 
 3720.000000     0.006698 
 3780.000000     0.007052 
 3840.000000     0.007406 
 3900.000000     0.007749 
 3960.000000     0.008092 
 4020.000000     0.008429 
 4080.000000     0.008761 
 4140.000000     0.009093 
 4200.000000     0.009419 
 4260.000000     0.009740 
 4320.000000     0.010055 
 4380.000000     0.010371 
 4440.000000     0.010680 
 4500.000000     0.010985 
 4560.000000     0.011289 
 4620.000000     0.011587 
 4680.000000     0.011880 
 4740.000000     0.012168 
 4800.000000     0.012456 
 4860.000000     0.012743 
 4920.000000     0.013020 
 4980.000000     0.013296 
 5040.000000     0.013567 
 5100.000000     0.013838 
 5160.000000     0.014104 
 5220.000000     0.014369 
 5280.000000     0.014629 
 5340.000000     0.014883 
 5400.000000     0.015138 
 5460.000000     0.015387 
 5520.000000     0.015630 
 5580.000000     0.015873 
 5640.000000     0.016117 
 5700.000000     0.016354 
 5760.000000     0.016587 
 5820.000000     0.016819 
 5880.000000     0.017046 
 5940.000000     0.017273 
 6000.000000     0.017494 
 6060.000000     0.017715 
 6120.000000     0.017931 
 6180.000000     0.018146 
 6240.000000     0.018356 
 6300.000000     0.018567 
 6360.000000     0.018771 
 6420.000000     0.018976 
 6480.000000     0.019181 
 6540.000000     0.019380 
 6600.000000     0.019573 
 6660.000000     0.019767 
 6720.000000     0.019960 
 6780.000000     0.020154 
 6840.000000     0.020342 
 6900.000000     0.020524 
 6960.000000     0.020707 
 7020.000000     0.020889 
 7080.000000     0.021072 
 7140.000000     0.021249 
 7200.000000     0.021418 
 7260.000000     0.020871 
 7320.000000     0.020307 
 7380.000000     0.019759 
 7440.000000     0.019228 
 7500.000000     0.018714 
 7560.000000     0.018216 
 7620.000000     0.017735 
 7680.000000     0.017271 
 7740.000000     0.016817 
 7800.000000     0.016386 
 7860.000000     0.015960 
 7920.000000     0.015556 
 7980.000000     0.015164 
 8040.000000     0.014782 
 8100.000000     0.014417 
 8160.000000     0.014063 
 8220.000000     0.013720 
 8280.000000     0.013389 
 8340.000000     0.013068 
 8400.000000     0.012764 
 8460.000000     0.012460 
 8520.000000     0.012172 
 8580.000000     0.011895 
 8640.000000     0.011625 
 8700.000000     0.011365 
 8760.000000     0.011110 
 8820.000000     0.010867 
 8880.000000     0.010629 
 8940.000000     0.010402 
 9000.000000     0.010181 
 9060.000000     0.009966 
 9120.000000     0.009761 
 9180.000000     0.009562 
 9240.000000     0.009368 
 9300.000000     0.009180 
 9360.000000     0.008998 
 9420.000000     0.008826 
 9480.000000     0.008655 
 9540.000000     0.008489 
 9600.000000     0.008329 
 9660.000000     0.008174 
 9720.000000     0.008024 
 9780.000000     0.007881 
 9840.000000     0.007737 
 9900.000000     0.007604 
 9960.000000     0.007471 
10020.000000     0.007344 
10080.000000     0.007223 
10140.000000     0.007101 
10200.000000     0.006985 
10260.000000     0.006869 
10320.000000     0.006764 
10380.000000     0.006653 
10440.000000     0.006553 
10500.000000     0.006454 
10560.000000     0.006354 
10620.000000     0.006260 
10680.000000     0.006172 
10740.000000     0.006083 
10800.000000     0.005995 
10860.000000     0.005912 
10920.000000     0.005835 
10980.000000     0.005752 
11040.000000     0.005680 
11100.000000     0.005602 
11160.000000     0.005530 
11220.000000     0.005464 
11280.000000     0.005392 
11340.000000     0.005326 
11400.000000     0.005265 
11460.000000     0.005199 
11520.000000     0.005143 
11580.000000     0.005082 
11640.000000     0.005027 
11700.000000     0.004966 
11760.000000     0.004917 
11820.000000     0.004861 
11880.000000     0.004811 
11940.000000     0.004762 
12000.000000     0.004712 
12060.000000     0.004668 
12120.000000     0.004623 
12180.000000     0.004579 
12240.000000     0.004535 
12300.000000     0.004491 
12360.000000     0.004452 
12420.000000     0.004413 
12480.000000     0.004369 
12540.000000     0.004336 
12600.000000     0.004297 
12660.000000     0.004258 
12720.000000     0.004225 
12780.000000     0.004192 
12840.000000     0.004159 
12900.000000     0.004126 
12960.000000     0.004098 
13020.000000     0.004065 
13080.000000     0.004037 
13140.000000     0.004004 
13200.000000     0.003976 
13260.000000     0.003949 
13320.000000     0.003921 
13380.000000     0.003899 
13440.000000     0.003871 
13500.000000     0.003844 
13560.000000     0.003822 
13620.000000     0.003799 
13680.000000     0.003777 
13740.000000     0.003750 
13800.000000     0.003728 
13860.000000     0.003705 
13920.000000     0.003689 
13980.000000     0.003667 
14040.000000     0.003645 
14100.000000     0.003628 
14160.000000     0.003606 
14220.000000     0.003589 
14280.000000     0.003567 
14340.000000     0.003551 
14400.000000     0.003534 
14460.000000     0.003517 
14520.000000     0.003501 
14580.000000     0.003484 
14640.000000     0.003468 
14700.000000     0.003451 
14760.000000     0.003434 
14820.000000     0.003423 
14880.000000     0.003407 
14940.000000     0.003396 
15000.000000     0.003379 
15060.000000     0.003363 
15120.000000     0.003351 
15180.000000     0.003340 
15240.000000     0.003324 
15300.000000     0.003313 
15360.000000     0.003302 
15420.000000     0.003285 
15480.000000     0.003274 
15540.000000     0.003263 
15600.000000     0.003252 
15660.000000     0.003241 
15720.000000     0.003230 
15780.000000     0.003219 
15840.000000     0.003208 
15900.000000     0.003197 
15960.000000     0.003186 
16020.000000     0.003180 
16080.000000     0.003169 
16140.000000     0.003158 
16200.000000     0.003147 
16260.000000     0.003141 
16320.000000     0.003130 
16380.000000     0.003119 
16440.000000     0.003114 
16500.000000     0.003103 
16560.000000     0.003092 
16620.000000     0.003086 
16680.000000     0.003075 
16740.000000     0.003069 
16800.000000     0.003058 
16860.000000     0.003053 
16920.000000     0.003047 
16980.000000     0.003036 
17040.000000     0.003031 
17100.000000     0.003020 
17160.000000     0.003014 
17220.000000     0.003009 
17280.000000     0.003003 
17340.000000     0.002992 
17400.000000     0.002986 
17460.000000     0.002981 
17520.000000     0.002970 
17580.000000     0.002964 
17640.000000     0.002959 
17700.000000     0.002953 
17760.000000     0.002948 
17820.000000     0.002942 
17880.000000     0.002937 
17940.000000     0.002926 
18000.000000     0.002920 
18060.000000     0.002915 
18120.000000     0.002909 
18180.000000     0.002904 
18240.000000     0.002898 
18300.000000     0.002892 
18360.000000     0.002887 
18420.000000     0.002881 
18480.000000     0.002876 
18540.000000     0.002870 
18600.000000     0.002865 
18660.000000     0.002859 

[Forcing]
name       = 1056150L
function   = timeseries
timeInterpolation = linear
quantity   = time
unit       = minutes since 2010-11-09 00:00:00
quantity   = lateral_discharge
unit       = m3/s
    0.000000     0.001636 
   60.000000     0.001636 
  120.000000     0.001636 
  180.000000     0.001629 
  240.000000     0.001629 
  300.000000     0.001629 
  360.000000     0.001623 
  420.000000     0.001623 
  480.000000     0.001623 
  540.000000     0.001616 
  600.000000     0.001616 
  660.000000     0.001616 
  720.000000     0.001610 
  780.000000     0.001610 
  840.000000     0.001610 
  900.000000     0.001609 
  960.000000     0.001603 
 1020.000000     0.001603 
 1080.000000     0.001603 
 1140.000000     0.001603 
 1200.000000     0.001596 
 1260.000000     0.001596 
 1320.000000     0.001596 
 1380.000000     0.001596 
 1440.000000     0.001590 
 1500.000000     0.001590 
 1560.000000     0.001590 
 1620.000000     0.001590 
 1680.000000     0.001590 
 1740.000000     0.001583 
 1800.000000     0.001583 
 1860.000000     0.001583 
 1920.000000     0.001583 
 1980.000000     0.001577 
 2040.000000     0.001577 
 2100.000000     0.001577 
 2160.000000     0.001577 
 2220.000000     0.001577 
 2280.000000     0.001570 
 2340.000000     0.001570 
 2400.000000     0.001570 
 2460.000000     0.001570 
 2520.000000     0.001570 
 2580.000000     0.001564 
 2640.000000     0.001564 
 2700.000000     0.001564 
 2760.000000     0.001564 
 2820.000000     0.001564 
 2880.000000     0.001565 
 2940.000000     0.002025 
 3000.000000     0.002511 
 3060.000000     0.002990 
 3120.000000     0.003463 
 3180.000000     0.003936 
 3240.000000     0.004403 
 3300.000000     0.004863 
 3360.000000     0.005323 
 3420.000000     0.005776 
 3480.000000     0.006222 
 3540.000000     0.006663 
 3600.000000     0.007096 
 3660.000000     0.007530 
 3720.000000     0.007957 
 3780.000000     0.008377 
 3840.000000     0.008798 
 3900.000000     0.009205 
 3960.000000     0.009612 
 4020.000000     0.010013 
 4080.000000     0.010407 
 4140.000000     0.010801 
 4200.000000     0.011189 
 4260.000000     0.011570 
 4320.000000     0.011944 
 4380.000000     0.012319 
 4440.000000     0.012687 
 4500.000000     0.013048 
 4560.000000     0.013409 
 4620.000000     0.013764 
 4680.000000     0.014112 
 4740.000000     0.014454 
 4800.000000     0.014795 
 4860.000000     0.015137 
 4920.000000     0.015465 
 4980.000000     0.015794 
 5040.000000     0.016116 
 5100.000000     0.016438 
 5160.000000     0.016753 
 5220.000000     0.017068 
 5280.000000     0.017377 
 5340.000000     0.017679 
 5400.000000     0.017981 
 5460.000000     0.018277 
 5520.000000     0.018566 
 5580.000000     0.018855 
 5640.000000     0.019144 
 5700.000000     0.019427 
 5760.000000     0.019703 
 5820.000000     0.019978 
 5880.000000     0.020248 
 5940.000000     0.020517 
 6000.000000     0.020780 
 6060.000000     0.021043 
 6120.000000     0.021299 
 6180.000000     0.021555 
 6240.000000     0.021805 
 6300.000000     0.022054 
 6360.000000     0.022297 
 6420.000000     0.022540 
 6480.000000     0.022783 
 6540.000000     0.023020 
 6600.000000     0.023250 
 6660.000000     0.023480 
 6720.000000     0.023710 
 6780.000000     0.023940 
 6840.000000     0.024163 
 6900.000000     0.024380 
 6960.000000     0.024597 
 7020.000000     0.024813 
 7080.000000     0.025030 
 7140.000000     0.025240 
 7200.000000     0.025442 
 7260.000000     0.024791 
 7320.000000     0.024121 
 7380.000000     0.023471 
 7440.000000     0.022840 
 7500.000000     0.022229 
 7560.000000     0.021638 
 7620.000000     0.021067 
 7680.000000     0.020515 
 7740.000000     0.019976 
 7800.000000     0.019464 
 7860.000000     0.018958 
 7920.000000     0.018479 
 7980.000000     0.018012 
 8040.000000     0.017559 
 8100.000000     0.017125 
 8160.000000     0.016705 
 8220.000000     0.016298 
 8280.000000     0.015904 
 8340.000000     0.015523 
 8400.000000     0.015161 
 8460.000000     0.014800 
 8520.000000     0.014458 
 8580.000000     0.014130 
 8640.000000     0.013808 
 8700.000000     0.013499 
 8760.000000     0.013197 
 8820.000000     0.012908 
 8880.000000     0.012626 
 8940.000000     0.012356 
 9000.000000     0.012094 
 9060.000000     0.011837 
 9120.000000     0.011594 
 9180.000000     0.011358 
 9240.000000     0.011128 
 9300.000000     0.010905 
 9360.000000     0.010688 
 9420.000000     0.010484 
 9480.000000     0.010281 
 9540.000000     0.010084 
 9600.000000     0.009893 
 9660.000000     0.009709 
 9720.000000     0.009532 
 9780.000000     0.009361 
 9840.000000     0.009190 
 9900.000000     0.009033 
 9960.000000     0.008875 
10020.000000     0.008724 
10080.000000     0.008579 
10140.000000     0.008435 
10200.000000     0.008297 
10260.000000     0.008159 
10320.000000     0.008034 
10380.000000     0.007903 
10440.000000     0.007784 
10500.000000     0.007666 
10560.000000     0.007548 
10620.000000     0.007436 
10680.000000     0.007331 
10740.000000     0.007226 
10800.000000     0.007121 
10860.000000     0.007022 
10920.000000     0.006931 
10980.000000     0.006832 
11040.000000     0.006747 
11100.000000     0.006655 
11160.000000     0.006569 
11220.000000     0.006490 
11280.000000     0.006405 
11340.000000     0.006326 
11400.000000     0.006254 
11460.000000     0.006175 
11520.000000     0.006109 
11580.000000     0.006037 
11640.000000     0.005971 
11700.000000     0.005899 
11760.000000     0.005840 
11820.000000     0.005774 
11880.000000     0.005715 
11940.000000     0.005656 
12000.000000     0.005597 
12060.000000     0.005544 
12120.000000     0.005492 
12180.000000     0.005439 
12240.000000     0.005387 
12300.000000     0.005334 
12360.000000     0.005288 
12420.000000     0.005242 
12480.000000     0.005190 
12540.000000     0.005150 
12600.000000     0.005104 
12660.000000     0.005058 
12720.000000     0.005019 
12780.000000     0.004980 
12840.000000     0.004940 
12900.000000     0.004901 
12960.000000     0.004868 
13020.000000     0.004828 
13080.000000     0.004796 
13140.000000     0.004756 
13200.000000     0.004723 
13260.000000     0.004690 
13320.000000     0.004658 
13380.000000     0.004631 
13440.000000     0.004599 
13500.000000     0.004566 
13560.000000     0.004539 
13620.000000     0.004513 
13680.000000     0.004487 
13740.000000     0.004454 
13800.000000     0.004428 
13860.000000     0.004401 
13920.000000     0.004382 
13980.000000     0.004355 
14040.000000     0.004329 
14100.000000     0.004309 
14160.000000     0.004283 
14220.000000     0.004264 
14280.000000     0.004237 
14340.000000     0.004218 
14400.000000     0.004198 
14460.000000     0.004178 
14520.000000     0.004158 
14580.000000     0.004139 
14640.000000     0.004119 
14700.000000     0.004099 
14760.000000     0.004080 
14820.000000     0.004066 
14880.000000     0.004047 
14940.000000     0.004034 
15000.000000     0.004014 
15060.000000     0.003994 
15120.000000     0.003981 
15180.000000     0.003968 
15240.000000     0.003948 
15300.000000     0.003935 
15360.000000     0.003922 
15420.000000     0.003902 
15480.000000     0.003889 
15540.000000     0.003876 
15600.000000     0.003863 
15660.000000     0.003850 
15720.000000     0.003837 
15780.000000     0.003823 
15840.000000     0.003810 
15900.000000     0.003797 
15960.000000     0.003784 
16020.000000     0.003777 
16080.000000     0.003764 
16140.000000     0.003751 
16200.000000     0.003738 
16260.000000     0.003731 
16320.000000     0.003718 
16380.000000     0.003705 
16440.000000     0.003699 
16500.000000     0.003685 
16560.000000     0.003672 
16620.000000     0.003666 
16680.000000     0.003653 
16740.000000     0.003646 
16800.000000     0.003633 
16860.000000     0.003626 
16920.000000     0.003620 
16980.000000     0.003607 
17040.000000     0.003600 
17100.000000     0.003587 
17160.000000     0.003580 
17220.000000     0.003574 
17280.000000     0.003567 
17340.000000     0.003554 
17400.000000     0.003547 
17460.000000     0.003541 
17520.000000     0.003528 
17580.000000     0.003521 
17640.000000     0.003515 
17700.000000     0.003508 
17760.000000     0.003502 
17820.000000     0.003495 
17880.000000     0.003488 
17940.000000     0.003475 
18000.000000     0.003469 
18060.000000     0.003462 
18120.000000     0.003456 
18180.000000     0.003449 
18240.000000     0.003442 
18300.000000     0.003436 
18360.000000     0.003429 
18420.000000     0.003423 
18480.000000     0.003416 
18540.000000     0.003410 
18600.000000     0.003403 
18660.000000     0.003396 

[Forcing]
name       = 1057380L
function   = timeseries
timeInterpolation = linear
quantity   = time
unit       = minutes since 2010-11-09 00:00:00
quantity   = lateral_discharge
unit       = m3/s
    0.000000     0.000225 
   60.000000     0.000225 
  120.000000     0.000225 
  180.000000     0.000224 
  240.000000     0.000224 
  300.000000     0.000224 
  360.000000     0.000223 
  420.000000     0.000223 
  480.000000     0.000223 
  540.000000     0.000222 
  600.000000     0.000222 
  660.000000     0.000222 
  720.000000     0.000221 
  780.000000     0.000221 
  840.000000     0.000221 
  900.000000     0.000221 
  960.000000     0.000220 
 1020.000000     0.000220 
 1080.000000     0.000220 
 1140.000000     0.000220 
 1200.000000     0.000219 
 1260.000000     0.000219 
 1320.000000     0.000219 
 1380.000000     0.000219 
 1440.000000     0.000218 
 1500.000000     0.000218 
 1560.000000     0.000218 
 1620.000000     0.000218 
 1680.000000     0.000218 
 1740.000000     0.000218 
 1800.000000     0.000218 
 1860.000000     0.000218 
 1920.000000     0.000218 
 1980.000000     0.000217 
 2040.000000     0.000217 
 2100.000000     0.000217 
 2160.000000     0.000217 
 2220.000000     0.000217 
 2280.000000     0.000216 
 2340.000000     0.000216 
 2400.000000     0.000216 
 2460.000000     0.000216 
 2520.000000     0.000216 
 2580.000000     0.000215 
 2640.000000     0.000215 
 2700.000000     0.000215 
 2760.000000     0.000215 
 2820.000000     0.000215 
 2880.000000     0.000215 
 2940.000000     0.000278 
 3000.000000     0.000345 
 3060.000000     0.000411 
 3120.000000     0.000476 
 3180.000000     0.000541 
 3240.000000     0.000605 
 3300.000000     0.000668 
 3360.000000     0.000731 
 3420.000000     0.000794 
 3480.000000     0.000855 
 3540.000000     0.000916 
 3600.000000     0.000975 
 3660.000000     0.001035 
 3720.000000     0.001093 
 3780.000000     0.001151 
 3840.000000     0.001209 
 3900.000000     0.001265 
 3960.000000     0.001321 
 4020.000000     0.001376 
 4080.000000     0.001430 
 4140.000000     0.001484 
 4200.000000     0.001538 
 4260.000000     0.001590 
 4320.000000     0.001641 
 4380.000000     0.001693 
 4440.000000     0.001743 
 4500.000000     0.001793 
 4560.000000     0.001843 
 4620.000000     0.001891 
 4680.000000     0.001939 
 4740.000000     0.001986 
 4800.000000     0.002033 
 4860.000000     0.002080 
 4920.000000     0.002125 
 4980.000000     0.002170 
 5040.000000     0.002215 
 5100.000000     0.002259 
 5160.000000     0.002302 
 5220.000000     0.002346 
 5280.000000     0.002388 
 5340.000000     0.002429 
 5400.000000     0.002471 
 5460.000000     0.002512 
 5520.000000     0.002551 
 5580.000000     0.002591 
 5640.000000     0.002631 
 5700.000000     0.002670 
 5760.000000     0.002708 
 5820.000000     0.002745 
 5880.000000     0.002782 
 5940.000000     0.002819 
 6000.000000     0.002856 
 6060.000000     0.002892 
 6120.000000     0.002927 
 6180.000000     0.002962 
 6240.000000     0.002996 
 6300.000000     0.003031 
 6360.000000     0.003064 
 6420.000000     0.003098 
 6480.000000     0.003131 
 6540.000000     0.003163 
 6600.000000     0.003195 
 6660.000000     0.003227 
 6720.000000     0.003258 
 6780.000000     0.003290 
 6840.000000     0.003321 
 6900.000000     0.003350 
 6960.000000     0.003380 
 7020.000000     0.003410 
 7080.000000     0.003440 
 7140.000000     0.003469 
 7200.000000     0.003496 
 7260.000000     0.003407 
 7320.000000     0.003315 
 7380.000000     0.003225 
 7440.000000     0.003139 
 7500.000000     0.003055 
 7560.000000     0.002974 
 7620.000000     0.002895 
 7680.000000     0.002819 
 7740.000000     0.002745 
 7800.000000     0.002675 
 7860.000000     0.002605 
 7920.000000     0.002539 
 7980.000000     0.002475 
 8040.000000     0.002413 
 8100.000000     0.002353 
 8160.000000     0.002296 
 8220.000000     0.002240 
 8280.000000     0.002185 
 8340.000000     0.002133 
 8400.000000     0.002083 
 8460.000000     0.002034 
 8520.000000     0.001987 
 8580.000000     0.001942 
 8640.000000     0.001898 
 8700.000000     0.001855 
 8760.000000     0.001814 
 8820.000000     0.001774 
 8880.000000     0.001735 
 8940.000000     0.001698 
 9000.000000     0.001662 
 9060.000000     0.001627 
 9120.000000     0.001593 
 9180.000000     0.001561 
 9240.000000     0.001529 
 9300.000000     0.001499 
 9360.000000     0.001469 
 9420.000000     0.001441 
 9480.000000     0.001413 
 9540.000000     0.001386 
 9600.000000     0.001360 
 9660.000000     0.001334 
 9720.000000     0.001310 
 9780.000000     0.001286 
 9840.000000     0.001263 
 9900.000000     0.001241 
 9960.000000     0.001220 
10020.000000     0.001199 
10080.000000     0.001179 
10140.000000     0.001159 
10200.000000     0.001140 
10260.000000     0.001121 
10320.000000     0.001104 
10380.000000     0.001086 
10440.000000     0.001070 
10500.000000     0.001053 
10560.000000     0.001037 
10620.000000     0.001022 
10680.000000     0.001007 
10740.000000     0.000993 
10800.000000     0.000979 
10860.000000     0.000965 
10920.000000     0.000952 
10980.000000     0.000939 
11040.000000     0.000927 
11100.000000     0.000914 
11160.000000     0.000903 
11220.000000     0.000892 
11280.000000     0.000880 
11340.000000     0.000869 
11400.000000     0.000859 
11460.000000     0.000849 
11520.000000     0.000840 
11580.000000     0.000830 
11640.000000     0.000821 
11700.000000     0.000811 
11760.000000     0.000803 
11820.000000     0.000794 
11880.000000     0.000785 
11940.000000     0.000777 
12000.000000     0.000769 
12060.000000     0.000762 
12120.000000     0.000755 
12180.000000     0.000747 
12240.000000     0.000740 
12300.000000     0.000733 
12360.000000     0.000727 
12420.000000     0.000720 
12480.000000     0.000713 
12540.000000     0.000708 
12600.000000     0.000701 
12660.000000     0.000695 
12720.000000     0.000690 
12780.000000     0.000684 
12840.000000     0.000679 
12900.000000     0.000673 
12960.000000     0.000669 
13020.000000     0.000664 
13080.000000     0.000659 
13140.000000     0.000654 
13200.000000     0.000649 
13260.000000     0.000645 
13320.000000     0.000640 
13380.000000     0.000636 
13440.000000     0.000632 
13500.000000     0.000627 
13560.000000     0.000624 
13620.000000     0.000620 
13680.000000     0.000617 
13740.000000     0.000612 
13800.000000     0.000608 
13860.000000     0.000605 
13920.000000     0.000602 
13980.000000     0.000599 
14040.000000     0.000595 
14100.000000     0.000592 
14160.000000     0.000589 
14220.000000     0.000586 
14280.000000     0.000582 
14340.000000     0.000580 
14400.000000     0.000577 
14460.000000     0.000574 
14520.000000     0.000571 
14580.000000     0.000569 
14640.000000     0.000566 
14700.000000     0.000563 
14760.000000     0.000561 
14820.000000     0.000559 
14880.000000     0.000556 
14940.000000     0.000554 
15000.000000     0.000552 
15060.000000     0.000549 
15120.000000     0.000547 
15180.000000     0.000545 
15240.000000     0.000543 
15300.000000     0.000541 
15360.000000     0.000539 
15420.000000     0.000536 
15480.000000     0.000534 
15540.000000     0.000533 
15600.000000     0.000531 
15660.000000     0.000529 
15720.000000     0.000527 
15780.000000     0.000525 
15840.000000     0.000524 
15900.000000     0.000522 
15960.000000     0.000520 
16020.000000     0.000519 
16080.000000     0.000517 
16140.000000     0.000515 
16200.000000     0.000514 
16260.000000     0.000513 
16320.000000     0.000511 
16380.000000     0.000509 
16440.000000     0.000508 
16500.000000     0.000506 
16560.000000     0.000505 
16620.000000     0.000504 
16680.000000     0.000502 
16740.000000     0.000501 
16800.000000     0.000499 
16860.000000     0.000498 
16920.000000     0.000497 
16980.000000     0.000496 
17040.000000     0.000495 
17100.000000     0.000493 
17160.000000     0.000492 
17220.000000     0.000491 
17280.000000     0.000490 
17340.000000     0.000488 
17400.000000     0.000487 
17460.000000     0.000487 
17520.000000     0.000485 
17580.000000     0.000484 
17640.000000     0.000483 
17700.000000     0.000482 
17760.000000     0.000481 
17820.000000     0.000480 
17880.000000     0.000479 
17940.000000     0.000478 
18000.000000     0.000477 
18060.000000     0.000476 
18120.000000     0.000475 
18180.000000     0.000474 
18240.000000     0.000473 
18300.000000     0.000472 
18360.000000     0.000471 
18420.000000     0.000470 
18480.000000     0.000469 
18540.000000     0.000469 
18600.000000     0.000468 
18660.000000     0.000467 

[Forcing]
name       = 1057400L
function   = timeseries
timeInterpolation = linear
quantity   = time
unit       = minutes since 2010-11-09 00:00:00
quantity   = lateral_discharge
unit       = m3/s
    0.000000     0.000178 
   60.000000     0.000178 
  120.000000     0.000178 
  180.000000     0.000178 
  240.000000     0.000178 
  300.000000     0.000178 
  360.000000     0.000177 
  420.000000     0.000177 
  480.000000     0.000177 
  540.000000     0.000176 
  600.000000     0.000176 
  660.000000     0.000176 
  720.000000     0.000176 
  780.000000     0.000176 
  840.000000     0.000176 
  900.000000     0.000176 
  960.000000     0.000175 
 1020.000000     0.000175 
 1080.000000     0.000175 
 1140.000000     0.000175 
 1200.000000     0.000174 
 1260.000000     0.000174 
 1320.000000     0.000174 
 1380.000000     0.000174 
 1440.000000     0.000173 
 1500.000000     0.000173 
 1560.000000     0.000173 
 1620.000000     0.000173 
 1680.000000     0.000173 
 1740.000000     0.000173 
 1800.000000     0.000173 
 1860.000000     0.000173 
 1920.000000     0.000173 
 1980.000000     0.000172 
 2040.000000     0.000172 
 2100.000000     0.000172 
 2160.000000     0.000172 
 2220.000000     0.000172 
 2280.000000     0.000171 
 2340.000000     0.000171 
 2400.000000     0.000171 
 2460.000000     0.000171 
 2520.000000     0.000171 
 2580.000000     0.000171 
 2640.000000     0.000171 
 2700.000000     0.000171 
 2760.000000     0.000171 
 2820.000000     0.000171 
 2880.000000     0.000171 
 2940.000000     0.000221 
 3000.000000     0.000274 
 3060.000000     0.000326 
 3120.000000     0.000378 
 3180.000000     0.000429 
 3240.000000     0.000480 
 3300.000000     0.000530 
 3360.000000     0.000581 
 3420.000000     0.000630 
 3480.000000     0.000679 
 3540.000000     0.000727 
 3600.000000     0.000774 
 3660.000000     0.000821 
 3720.000000     0.000868 
 3780.000000     0.000914 
 3840.000000     0.000960 
 3900.000000     0.001004 
 3960.000000     0.001049 
 4020.000000     0.001092 
 4080.000000     0.001135 
 4140.000000     0.001178 
 4200.000000     0.001221 
 4260.000000     0.001262 
 4320.000000     0.001303 
 4380.000000     0.001344 
 4440.000000     0.001384 
 4500.000000     0.001423 
 4560.000000     0.001463 
 4620.000000     0.001502 
 4680.000000     0.001540 
 4740.000000     0.001577 
 4800.000000     0.001614 
 4860.000000     0.001651 
 4920.000000     0.001687 
 4980.000000     0.001723 
 5040.000000     0.001758 
 5100.000000     0.001793 
 5160.000000     0.001828 
 5220.000000     0.001862 
 5280.000000     0.001896 
 5340.000000     0.001929 
 5400.000000     0.001962 
 5460.000000     0.001994 
 5520.000000     0.002025 
 5580.000000     0.002057 
 5640.000000     0.002088 
 5700.000000     0.002119 
 5760.000000     0.002149 
 5820.000000     0.002179 
 5880.000000     0.002209 
 5940.000000     0.002238 
 6000.000000     0.002267 
 6060.000000     0.002296 
 6120.000000     0.002324 
 6180.000000     0.002351 
 6240.000000     0.002379 
 6300.000000     0.002406 
 6360.000000     0.002432 
 6420.000000     0.002459 
 6480.000000     0.002485 
 6540.000000     0.002511 
 6600.000000     0.002536 
 6660.000000     0.002561 
 6720.000000     0.002587 
 6780.000000     0.002612 
 6840.000000     0.002636 
 6900.000000     0.002660 
 6960.000000     0.002683 
 7020.000000     0.002707 
 7080.000000     0.002731 
 7140.000000     0.002753 
 7200.000000     0.002775 
 7260.000000     0.002704 
 7320.000000     0.002631 
 7380.000000     0.002560 
 7440.000000     0.002492 
 7500.000000     0.002425 
 7560.000000     0.002361 
 7620.000000     0.002298 
 7680.000000     0.002238 
 7740.000000     0.002179 
 7800.000000     0.002123 
 7860.000000     0.002068 
 7920.000000     0.002016 
 7980.000000     0.001965 
 8040.000000     0.001916 
 8100.000000     0.001868 
 8160.000000     0.001822 
 8220.000000     0.001778 
 8280.000000     0.001735 
 8340.000000     0.001693 
 8400.000000     0.001654 
 8460.000000     0.001615 
 8520.000000     0.001577 
 8580.000000     0.001541 
 8640.000000     0.001506 
 8700.000000     0.001473 
 8760.000000     0.001440 
 8820.000000     0.001408 
 8880.000000     0.001377 
 8940.000000     0.001348 
 9000.000000     0.001319 
 9060.000000     0.001291 
 9120.000000     0.001265 
 9180.000000     0.001239 
 9240.000000     0.001214 
 9300.000000     0.001190 
 9360.000000     0.001166 
 9420.000000     0.001144 
 9480.000000     0.001122 
 9540.000000     0.001100 
 9600.000000     0.001079 
 9660.000000     0.001059 
 9720.000000     0.001040 
 9780.000000     0.001021 
 9840.000000     0.001003 
 9900.000000     0.000985 
 9960.000000     0.000968 
10020.000000     0.000952 
10080.000000     0.000936 
10140.000000     0.000920 
10200.000000     0.000905 
10260.000000     0.000890 
10320.000000     0.000876 
10380.000000     0.000862 
10440.000000     0.000849 
10500.000000     0.000836 
10560.000000     0.000823 
10620.000000     0.000811 
10680.000000     0.000800 
10740.000000     0.000788 
10800.000000     0.000777 
10860.000000     0.000766 
10920.000000     0.000756 
10980.000000     0.000745 
11040.000000     0.000736 
11100.000000     0.000726 
11160.000000     0.000717 
11220.000000     0.000708 
11280.000000     0.000699 
11340.000000     0.000690 
11400.000000     0.000682 
11460.000000     0.000674 
11520.000000     0.000666 
11580.000000     0.000659 
11640.000000     0.000651 
11700.000000     0.000644 
11760.000000     0.000637 
11820.000000     0.000630 
11880.000000     0.000623 
11940.000000     0.000617 
12000.000000     0.000611 
12060.000000     0.000605 
12120.000000     0.000599 
12180.000000     0.000593 
12240.000000     0.000588 
12300.000000     0.000582 
12360.000000     0.000577 
12420.000000     0.000572 
12480.000000     0.000566 
12540.000000     0.000562 
12600.000000     0.000557 
12660.000000     0.000552 
12720.000000     0.000548 
12780.000000     0.000543 
12840.000000     0.000539 
12900.000000     0.000535 
12960.000000     0.000531 
13020.000000     0.000527 
13080.000000     0.000523 
13140.000000     0.000519 
13200.000000     0.000515 
13260.000000     0.000512 
13320.000000     0.000508 
13380.000000     0.000505 
13440.000000     0.000502 
13500.000000     0.000498 
13560.000000     0.000495 
13620.000000     0.000492 
13680.000000     0.000489 
13740.000000     0.000486 
13800.000000     0.000483 
13860.000000     0.000480 
13920.000000     0.000478 
13980.000000     0.000475 
14040.000000     0.000472 
14100.000000     0.000470 
14160.000000     0.000467 
14220.000000     0.000465 
14280.000000     0.000462 
14340.000000     0.000460 
14400.000000     0.000458 
14460.000000     0.000456 
14520.000000     0.000454 
14580.000000     0.000451 
14640.000000     0.000449 
14700.000000     0.000447 
14760.000000     0.000445 
14820.000000     0.000444 
14880.000000     0.000441 
14940.000000     0.000440 
15000.000000     0.000438 
15060.000000     0.000436 
15120.000000     0.000434 
15180.000000     0.000433 
15240.000000     0.000431 
15300.000000     0.000429 
15360.000000     0.000428 
15420.000000     0.000426 
15480.000000     0.000424 
15540.000000     0.000423 
15600.000000     0.000421 
15660.000000     0.000420 
15720.000000     0.000419 
15780.000000     0.000417 
15840.000000     0.000416 
15900.000000     0.000414 
15960.000000     0.000413 
16020.000000     0.000412 
16080.000000     0.000411 
16140.000000     0.000409 
16200.000000     0.000408 
16260.000000     0.000407 
16320.000000     0.000406 
16380.000000     0.000404 
16440.000000     0.000403 
16500.000000     0.000402 
16560.000000     0.000401 
16620.000000     0.000400 
16680.000000     0.000398 
16740.000000     0.000398 
16800.000000     0.000396 
16860.000000     0.000396 
16920.000000     0.000395 
16980.000000     0.000393 
17040.000000     0.000393 
17100.000000     0.000391 
17160.000000     0.000391 
17220.000000     0.000390 
17280.000000     0.000389 
17340.000000     0.000388 
17400.000000     0.000387 
17460.000000     0.000386 
17520.000000     0.000385 
17580.000000     0.000384 
17640.000000     0.000383 
17700.000000     0.000383 
17760.000000     0.000382 
17820.000000     0.000381 
17880.000000     0.000381 
17940.000000     0.000379 
18000.000000     0.000378 
18060.000000     0.000378 
18120.000000     0.000377 
18180.000000     0.000376 
18240.000000     0.000376 
18300.000000     0.000375 
18360.000000     0.000374 
18420.000000     0.000373 
18480.000000     0.000373 
18540.000000     0.000372 
18600.000000     0.000371 
18660.000000     0.000371 

[Forcing]
name       = 1050120L
function   = timeseries
timeInterpolation = linear
quantity   = time
unit       = minutes since 2010-11-09 00:00:00
quantity   = lateral_discharge
unit       = m3/s
    0.000000     0.007357 
   60.000000     0.007357 
  120.000000     0.007356 
  180.000000     0.007327 
  240.000000     0.007327 
  300.000000     0.007327 
  360.000000     0.007297 
  420.000000     0.007297 
  480.000000     0.007297 
  540.000000     0.007268 
  600.000000     0.007268 
  660.000000     0.007268 
  720.000000     0.007238 
  780.000000     0.007238 
  840.000000     0.007238 
  900.000000     0.007238 
  960.000000     0.007209 
 1020.000000     0.007209 
 1080.000000     0.007209 
 1140.000000     0.007209 
 1200.000000     0.007179 
 1260.000000     0.007179 
 1320.000000     0.007179 
 1380.000000     0.007179 
 1440.000000     0.007150 
 1500.000000     0.007150 
 1560.000000     0.007150 
 1620.000000     0.007150 
 1680.000000     0.007150 
 1740.000000     0.007120 
 1800.000000     0.007120 
 1860.000000     0.007120 
 1920.000000     0.007120 
 1980.000000     0.007091 
 2040.000000     0.007091 
 2100.000000     0.007091 
 2160.000000     0.007091 
 2220.000000     0.007091 
 2280.000000     0.007061 
 2340.000000     0.007061 
 2400.000000     0.007061 
 2460.000000     0.007061 
 2520.000000     0.007061 
 2580.000000     0.007032 
 2640.000000     0.007032 
 2700.000000     0.007032 
 2760.000000     0.007032 
 2820.000000     0.007032 
 2880.000000     0.007037 
 2940.000000     0.009106 
 3000.000000     0.011292 
 3060.000000     0.013449 
 3120.000000     0.015576 
 3180.000000     0.017703 
 3240.000000     0.019801 
 3300.000000     0.021869 
 3360.000000     0.023937 
 3420.000000     0.025975 
 3480.000000     0.027984 
 3540.000000     0.029964 
 3600.000000     0.031913 
 3660.000000     0.033863 
 3720.000000     0.035784 
 3780.000000     0.037674 
 3840.000000     0.039565 
 3900.000000     0.041397 
 3960.000000     0.043229 
 4020.000000     0.045031 
 4080.000000     0.046803 
 4140.000000     0.048576 
 4200.000000     0.050319 
 4260.000000     0.052032 
 4320.000000     0.053716 
 4380.000000     0.055400 
 4440.000000     0.057055 
 4500.000000     0.058680 
 4560.000000     0.060305 
 4620.000000     0.061900 
 4680.000000     0.063466 
 4740.000000     0.065002 
 4800.000000     0.066538 
 4860.000000     0.068075 
 4920.000000     0.069552 
 4980.000000     0.071029 
 5040.000000     0.072477 
 5100.000000     0.073924 
 5160.000000     0.075342 
 5220.000000     0.076760 
 5280.000000     0.078149 
 5340.000000     0.079508 
 5400.000000     0.080867 
 5460.000000     0.082196 
 5520.000000     0.083496 
 5580.000000     0.084796 
 5640.000000     0.086096 
 5700.000000     0.087366 
 5760.000000     0.088607 
 5820.000000     0.089848 
 5880.000000     0.091059 
 5940.000000     0.092271 
 6000.000000     0.093452 
 6060.000000     0.094634 
 6120.000000     0.095786 
 6180.000000     0.096938 
 6240.000000     0.098061 
 6300.000000     0.099184 
 6360.000000     0.100277 
 6420.000000     0.101370 
 6480.000000     0.102463 
 6540.000000     0.103527 
 6600.000000     0.104561 
 6660.000000     0.105595 
 6720.000000     0.106629 
 6780.000000     0.107663 
 6840.000000     0.108668 
 6900.000000     0.109642 
 6960.000000     0.110617 
 7020.000000     0.111592 
 7080.000000     0.112567 
 7140.000000     0.113512 
 7200.000000     0.114417 
 7260.000000     0.111492 
 7320.000000     0.108479 
 7380.000000     0.105554 
 7440.000000     0.102718 
 7500.000000     0.099971 
 7560.000000     0.097312 
 7620.000000     0.094742 
 7680.000000     0.092261 
 7740.000000     0.089838 
 7800.000000     0.087534 
 7860.000000     0.085259 
 7920.000000     0.083103 
 7980.000000     0.081005 
 8040.000000     0.078967 
 8100.000000     0.077017 
 8160.000000     0.075126 
 8220.000000     0.073295 
 8280.000000     0.071522 
 8340.000000     0.069809 
 8400.000000     0.068184 
 8460.000000     0.066559 
 8520.000000     0.065023 
 8580.000000     0.063546 
 8640.000000     0.062099 
 8700.000000     0.060710 
 8760.000000     0.059351 
 8820.000000     0.058051 
 8880.000000     0.056781 
 8940.000000     0.055570 
 9000.000000     0.054388 
 9060.000000     0.053236 
 9120.000000     0.052143 
 9180.000000     0.051079 
 9240.000000     0.050046 
 9300.000000     0.049041 
 9360.000000     0.048066 
 9420.000000     0.047150 
 9480.000000     0.046235 
 9540.000000     0.045348 
 9600.000000     0.044492 
 9660.000000     0.043665 
 9720.000000     0.042867 
 9780.000000     0.042099 
 9840.000000     0.041331 
 9900.000000     0.040622 
 9960.000000     0.039913 
10020.000000     0.039233 
10080.000000     0.038583 
10140.000000     0.037933 
10200.000000     0.037313 
10260.000000     0.036693 
10320.000000     0.036131 
10380.000000     0.035541 
10440.000000     0.035009 
10500.000000     0.034477 
10560.000000     0.033945 
10620.000000     0.033443 
10680.000000     0.032970 
10740.000000     0.032498 
10800.000000     0.032025 
10860.000000     0.031582 
10920.000000     0.031168 
10980.000000     0.030725 
11040.000000     0.030341 
11100.000000     0.029927 
11160.000000     0.029543 
11220.000000     0.029189 
11280.000000     0.028805 
11340.000000     0.028450 
11400.000000     0.028125 
11460.000000     0.027771 
11520.000000     0.027475 
11580.000000     0.027151 
11640.000000     0.026855 
11700.000000     0.026530 
11760.000000     0.026264 
11820.000000     0.025969 
11880.000000     0.025703 
11940.000000     0.025437 
12000.000000     0.025171 
12060.000000     0.024935 
12120.000000     0.024698 
12180.000000     0.024462 
12240.000000     0.024226 
12300.000000     0.023990 
12360.000000     0.023783 
12420.000000     0.023576 
12480.000000     0.023340 
12540.000000     0.023162 
12600.000000     0.022955 
12660.000000     0.022749 
12720.000000     0.022571 
12780.000000     0.022394 
12840.000000     0.022217 
12900.000000     0.022040 
12960.000000     0.021892 
13020.000000     0.021715 
13080.000000     0.021567 
13140.000000     0.021390 
13200.000000     0.021242 
13260.000000     0.021094 
13320.000000     0.020947 
13380.000000     0.020828 
13440.000000     0.020681 
13500.000000     0.020533 
13560.000000     0.020415 
13620.000000     0.020297 
13680.000000     0.020178 
13740.000000     0.020031 
13800.000000     0.019913 
13860.000000     0.019795 
13920.000000     0.019706 
13980.000000     0.019588 
14040.000000     0.019470 
14100.000000     0.019381 
14160.000000     0.019263 
14220.000000     0.019174 
14280.000000     0.019056 
14340.000000     0.018967 
14400.000000     0.018879 
14460.000000     0.018790 
14520.000000     0.018701 
14580.000000     0.018613 
14640.000000     0.018524 
14700.000000     0.018435 
14760.000000     0.018347 
14820.000000     0.018288 
14880.000000     0.018199 
14940.000000     0.018140 
15000.000000     0.018051 
15060.000000     0.017963 
15120.000000     0.017904 
15180.000000     0.017845 
15240.000000     0.017756 
15300.000000     0.017697 
15360.000000     0.017638 
15420.000000     0.017549 
15480.000000     0.017490 
15540.000000     0.017431 
15600.000000     0.017372 
15660.000000     0.017313 
15720.000000     0.017254 
15780.000000     0.017195 
15840.000000     0.017136 
15900.000000     0.017077 
15960.000000     0.017018 
16020.000000     0.016988 
16080.000000     0.016929 
16140.000000     0.016870 
16200.000000     0.016811 
16260.000000     0.016781 
16320.000000     0.016722 
16380.000000     0.016663 
16440.000000     0.016633 
16500.000000     0.016574 
16560.000000     0.016515 
16620.000000     0.016486 
16680.000000     0.016427 
16740.000000     0.016397 
16800.000000     0.016338 
16860.000000     0.016308 
16920.000000     0.016279 
16980.000000     0.016220 
17040.000000     0.016190 
17100.000000     0.016131 
17160.000000     0.016102 
17220.000000     0.016072 
17280.000000     0.016042 
17340.000000     0.015983 
17400.000000     0.015954 
17460.000000     0.015924 
17520.000000     0.015865 
17580.000000     0.015836 
17640.000000     0.015806 
17700.000000     0.015777 
17760.000000     0.015747 
17820.000000     0.015718 
17880.000000     0.015688 
17940.000000     0.015629 
18000.000000     0.015599 
18060.000000     0.015570 
18120.000000     0.015540 
18180.000000     0.015511 
18240.000000     0.015481 
18300.000000     0.015452 
18360.000000     0.015422 
18420.000000     0.015393 
18480.000000     0.015363 
18540.000000     0.015334 
18600.000000     0.015304 
18660.000000     0.015274 

[Forcing]
name       = 1050545L
function   = timeseries
timeInterpolation = linear
quantity   = time
unit       = minutes since 2010-11-09 00:00:00
quantity   = lateral_discharge
unit       = m3/s
    0.000000     0.000694 
   60.000000     0.000694 
  120.000000     0.000694 
  180.000000     0.000691 
  240.000000     0.000691 
  300.000000     0.000691 
  360.000000     0.000688 
  420.000000     0.000688 
  480.000000     0.000688 
  540.000000     0.000685 
  600.000000     0.000685 
  660.000000     0.000685 
  720.000000     0.000683 
  780.000000     0.000683 
  840.000000     0.000683 
  900.000000     0.000683 
  960.000000     0.000680 
 1020.000000     0.000680 
 1080.000000     0.000680 
 1140.000000     0.000680 
 1200.000000     0.000677 
 1260.000000     0.000677 
 1320.000000     0.000677 
 1380.000000     0.000677 
 1440.000000     0.000674 
 1500.000000     0.000674 
 1560.000000     0.000674 
 1620.000000     0.000674 
 1680.000000     0.000674 
 1740.000000     0.000671 
 1800.000000     0.000671 
 1860.000000     0.000671 
 1920.000000     0.000671 
 1980.000000     0.000669 
 2040.000000     0.000669 
 2100.000000     0.000669 
 2160.000000     0.000669 
 2220.000000     0.000669 
 2280.000000     0.000666 
 2340.000000     0.000666 
 2400.000000     0.000666 
 2460.000000     0.000666 
 2520.000000     0.000666 
 2580.000000     0.000663 
 2640.000000     0.000663 
 2700.000000     0.000663 
 2760.000000     0.000663 
 2820.000000     0.000663 
 2880.000000     0.000664 
 2940.000000     0.000859 
 3000.000000     0.001065 
 3060.000000     0.001268 
 3120.000000     0.001469 
 3180.000000     0.001669 
 3240.000000     0.001867 
 3300.000000     0.002062 
 3360.000000     0.002257 
 3420.000000     0.002450 
 3480.000000     0.002639 
 3540.000000     0.002826 
 3600.000000     0.003010 
 3660.000000     0.003193 
 3720.000000     0.003374 
 3780.000000     0.003553 
 3840.000000     0.003731 
 3900.000000     0.003904 
 3960.000000     0.004077 
 4020.000000     0.004246 
 4080.000000     0.004414 
 4140.000000     0.004581 
 4200.000000     0.004745 
 4260.000000     0.004907 
 4320.000000     0.005066 
 4380.000000     0.005224 
 4440.000000     0.005380 
 4500.000000     0.005534 
 4560.000000     0.005687 
 4620.000000     0.005837 
 4680.000000     0.005985 
 4740.000000     0.006130 
 4800.000000     0.006275 
 4860.000000     0.006420 
 4920.000000     0.006559 
 4980.000000     0.006698 
 5040.000000     0.006835 
 5100.000000     0.006971 
 5160.000000     0.007105 
 5220.000000     0.007239 
 5280.000000     0.007370 
 5340.000000     0.007498 
 5400.000000     0.007626 
 5460.000000     0.007751 
 5520.000000     0.007874 
 5580.000000     0.007996 
 5640.000000     0.008119 
 5700.000000     0.008239 
 5760.000000     0.008356 
 5820.000000     0.008473 
 5880.000000     0.008587 
 5940.000000     0.008701 
 6000.000000     0.008813 
 6060.000000     0.008924 
 6120.000000     0.009033 
 6180.000000     0.009142 
 6240.000000     0.009247 
 6300.000000     0.009353 
 6360.000000     0.009456 
 6420.000000     0.009559 
 6480.000000     0.009663 
 6540.000000     0.009763 
 6600.000000     0.009860 
 6660.000000     0.009958 
 6720.000000     0.010055 
 6780.000000     0.010153 
 6840.000000     0.010248 
 6900.000000     0.010339 
 6960.000000     0.010431 
 7020.000000     0.010523 
 7080.000000     0.010615 
 7140.000000     0.010704 
 7200.000000     0.010790 
 7260.000000     0.010514 
 7320.000000     0.010230 
 7380.000000     0.009954 
 7440.000000     0.009687 
 7500.000000     0.009428 
 7560.000000     0.009177 
 7620.000000     0.008934 
 7680.000000     0.008700 
 7740.000000     0.008472 
 7800.000000     0.008255 
 7860.000000     0.008040 
 7920.000000     0.007837 
 7980.000000     0.007639 
 8040.000000     0.007447 
 8100.000000     0.007263 
 8160.000000     0.007085 
 8220.000000     0.006912 
 8280.000000     0.006745 
 8340.000000     0.006583 
 8400.000000     0.006430 
 8460.000000     0.006277 
 8520.000000     0.006132 
 8580.000000     0.005993 
 8640.000000     0.005856 
 8700.000000     0.005725 
 8760.000000     0.005597 
 8820.000000     0.005474 
 8880.000000     0.005355 
 8940.000000     0.005240 
 9000.000000     0.005129 
 9060.000000     0.005020 
 9120.000000     0.004917 
 9180.000000     0.004817 
 9240.000000     0.004719 
 9300.000000     0.004625 
 9360.000000     0.004533 
 9420.000000     0.004446 
 9480.000000     0.004360 
 9540.000000     0.004276 
 9600.000000     0.004196 
 9660.000000     0.004118 
 9720.000000     0.004042 
 9780.000000     0.003970 
 9840.000000     0.003898 
 9900.000000     0.003831 
 9960.000000     0.003764 
10020.000000     0.003700 
10080.000000     0.003638 
10140.000000     0.003577 
10200.000000     0.003519 
10260.000000     0.003460 
10320.000000     0.003407 
10380.000000     0.003352 
10440.000000     0.003301 
10500.000000     0.003251 
10560.000000     0.003201 
10620.000000     0.003154 
10680.000000     0.003109 
10740.000000     0.003065 
10800.000000     0.003020 
10860.000000     0.002978 
10920.000000     0.002939 
10980.000000     0.002897 
11040.000000     0.002861 
11100.000000     0.002822 
11160.000000     0.002786 
11220.000000     0.002753 
11280.000000     0.002716 
11340.000000     0.002683 
11400.000000     0.002652 
11460.000000     0.002619 
11520.000000     0.002591 
11580.000000     0.002560 
11640.000000     0.002532 
11700.000000     0.002502 
11760.000000     0.002477 
11820.000000     0.002449 
11880.000000     0.002424 
11940.000000     0.002399 
12000.000000     0.002374 
12060.000000     0.002351 
12120.000000     0.002329 
12180.000000     0.002307 
12240.000000     0.002285 
12300.000000     0.002262 
12360.000000     0.002243 
12420.000000     0.002223 
12480.000000     0.002201 
12540.000000     0.002184 
12600.000000     0.002165 
12660.000000     0.002145 
12720.000000     0.002129 
12780.000000     0.002112 
12840.000000     0.002095 
12900.000000     0.002078 
12960.000000     0.002064 
13020.000000     0.002048 
13080.000000     0.002034 
13140.000000     0.002017 
13200.000000     0.002003 
13260.000000     0.001989 
13320.000000     0.001975 
13380.000000     0.001964 
13440.000000     0.001950 
13500.000000     0.001936 
13560.000000     0.001925 
13620.000000     0.001914 
13680.000000     0.001903 
13740.000000     0.001889 
13800.000000     0.001878 
13860.000000     0.001867 
13920.000000     0.001858 
13980.000000     0.001847 
14040.000000     0.001836 
14100.000000     0.001828 
14160.000000     0.001817 
14220.000000     0.001808 
14280.000000     0.001797 
14340.000000     0.001789 
14400.000000     0.001780 
14460.000000     0.001772 
14520.000000     0.001764 
14580.000000     0.001755 
14640.000000     0.001747 
14700.000000     0.001739 
14760.000000     0.001730 
14820.000000     0.001725 
14880.000000     0.001716 
14940.000000     0.001711 
15000.000000     0.001702 
15060.000000     0.001694 
15120.000000     0.001688 
15180.000000     0.001683 
15240.000000     0.001674 
15300.000000     0.001669 
15360.000000     0.001663 
15420.000000     0.001655 
15480.000000     0.001649 
15540.000000     0.001644 
15600.000000     0.001638 
15660.000000     0.001633 
15720.000000     0.001627 
15780.000000     0.001622 
15840.000000     0.001616 
15900.000000     0.001610 
15960.000000     0.001605 
16020.000000     0.001602 
16080.000000     0.001596 
16140.000000     0.001591 
16200.000000     0.001585 
16260.000000     0.001582 
16320.000000     0.001577 
16380.000000     0.001571 
16440.000000     0.001569 
16500.000000     0.001563 
16560.000000     0.001557 
16620.000000     0.001555 
16680.000000     0.001549 
16740.000000     0.001546 
16800.000000     0.001541 
16860.000000     0.001538 
16920.000000     0.001535 
16980.000000     0.001530 
17040.000000     0.001527 
17100.000000     0.001521 
17160.000000     0.001518 
17220.000000     0.001516 
17280.000000     0.001513 
17340.000000     0.001507 
17400.000000     0.001504 
17460.000000     0.001502 
17520.000000     0.001496 
17580.000000     0.001493 
17640.000000     0.001491 
17700.000000     0.001488 
17760.000000     0.001485 
17820.000000     0.001482 
17880.000000     0.001479 
17940.000000     0.001474 
18000.000000     0.001471 
18060.000000     0.001468 
18120.000000     0.001465 
18180.000000     0.001463 
18240.000000     0.001460 
18300.000000     0.001457 
18360.000000     0.001454 
18420.000000     0.001452 
18480.000000     0.001449 
18540.000000     0.001446 
18600.000000     0.001443 
18660.000000     0.001440 

[Forcing]
name       = 1051250L
function   = timeseries
timeInterpolation = linear
quantity   = time
unit       = minutes since 2010-11-09 00:00:00
quantity   = lateral_discharge
unit       = m3/s
    0.000000     0.000965 
   60.000000     0.000965 
  120.000000     0.000965 
  180.000000     0.000961 
  240.000000     0.000961 
  300.000000     0.000961 
  360.000000     0.000957 
  420.000000     0.000957 
  480.000000     0.000957 
  540.000000     0.000953 
  600.000000     0.000953 
  660.000000     0.000953 
  720.000000     0.000949 
  780.000000     0.000949 
  840.000000     0.000949 
  900.000000     0.000949 
  960.000000     0.000946 
 1020.000000     0.000946 
 1080.000000     0.000946 
 1140.000000     0.000945 
 1200.000000     0.000942 
 1260.000000     0.000942 
 1320.000000     0.000942 
 1380.000000     0.000942 
 1440.000000     0.000938 
 1500.000000     0.000938 
 1560.000000     0.000938 
 1620.000000     0.000938 
 1680.000000     0.000938 
 1740.000000     0.000934 
 1800.000000     0.000934 
 1860.000000     0.000934 
 1920.000000     0.000934 
 1980.000000     0.000930 
 2040.000000     0.000930 
 2100.000000     0.000930 
 2160.000000     0.000930 
 2220.000000     0.000930 
 2280.000000     0.000926 
 2340.000000     0.000926 
 2400.000000     0.000926 
 2460.000000     0.000926 
 2520.000000     0.000926 
 2580.000000     0.000922 
 2640.000000     0.000922 
 2700.000000     0.000922 
 2760.000000     0.000922 
 2820.000000     0.000922 
 2880.000000     0.000923 
 2940.000000     0.001194 
 3000.000000     0.001481 
 3060.000000     0.001764 
 3120.000000     0.002043 
 3180.000000     0.002322 
 3240.000000     0.002597 
 3300.000000     0.002868 
 3360.000000     0.003139 
 3420.000000     0.003407 
 3480.000000     0.003670 
 3540.000000     0.003930 
 3600.000000     0.004186 
 3660.000000     0.004441 
 3720.000000     0.004693 
 3780.000000     0.004941 
 3840.000000     0.005189 
 3900.000000     0.005430 
 3960.000000     0.005670 
 4020.000000     0.005906 
 4080.000000     0.006139 
 4140.000000     0.006371 
 4200.000000     0.006600 
 4260.000000     0.006824 
 4320.000000     0.007045 
 4380.000000     0.007266 
 4440.000000     0.007483 
 4500.000000     0.007696 
 4560.000000     0.007909 
 4620.000000     0.008119 
 4680.000000     0.008324 
 4740.000000     0.008526 
 4800.000000     0.008727 
 4860.000000     0.008929 
 4920.000000     0.009122 
 4980.000000     0.009316 
 5040.000000     0.009506 
 5100.000000     0.009696 
 5160.000000     0.009882 
 5220.000000     0.010068 
 5280.000000     0.010250 
 5340.000000     0.010428 
 5400.000000     0.010606 
 5460.000000     0.010781 
 5520.000000     0.010951 
 5580.000000     0.011122 
 5640.000000     0.011292 
 5700.000000     0.011459 
 5760.000000     0.011622 
 5820.000000     0.011784 
 5880.000000     0.011943 
 5940.000000     0.012102 
 6000.000000     0.012257 
 6060.000000     0.012412 
 6120.000000     0.012563 
 6180.000000     0.012714 
 6240.000000     0.012862 
 6300.000000     0.013009 
 6360.000000     0.013152 
 6420.000000     0.013296 
 6480.000000     0.013439 
 6540.000000     0.013578 
 6600.000000     0.013714 
 6660.000000     0.013850 
 6720.000000     0.013985 
 6780.000000     0.014121 
 6840.000000     0.014253 
 6900.000000     0.014380 
 6960.000000     0.014508 
 7020.000000     0.014636 
 7080.000000     0.014764 
 7140.000000     0.014888 
 7200.000000     0.015007 
 7260.000000     0.014623 
 7320.000000     0.014228 
 7380.000000     0.013844 
 7440.000000     0.013472 
 7500.000000     0.013112 
 7560.000000     0.012763 
 7620.000000     0.012426 
 7680.000000     0.012101 
 7740.000000     0.011783 
 7800.000000     0.011481 
 7860.000000     0.011182 
 7920.000000     0.010900 
 7980.000000     0.010625 
 8040.000000     0.010357 
 8100.000000     0.010101 
 8160.000000     0.009853 
 8220.000000     0.009613 
 8280.000000     0.009381 
 8340.000000     0.009156 
 8400.000000     0.008943 
 8460.000000     0.008730 
 8520.000000     0.008528 
 8580.000000     0.008335 
 8640.000000     0.008145 
 8700.000000     0.007963 
 8760.000000     0.007784 
 8820.000000     0.007614 
 8880.000000     0.007447 
 8940.000000     0.007288 
 9000.000000     0.007133 
 9060.000000     0.006982 
 9120.000000     0.006839 
 9180.000000     0.006700 
 9240.000000     0.006564 
 9300.000000     0.006432 
 9360.000000     0.006304 
 9420.000000     0.006184 
 9480.000000     0.006064 
 9540.000000     0.005948 
 9600.000000     0.005835 
 9660.000000     0.005727 
 9720.000000     0.005622 
 9780.000000     0.005522 
 9840.000000     0.005421 
 9900.000000     0.005328 
 9960.000000     0.005235 
10020.000000     0.005146 
10080.000000     0.005061 
10140.000000     0.004975 
10200.000000     0.004894 
10260.000000     0.004813 
10320.000000     0.004739 
10380.000000     0.004661 
10440.000000     0.004592 
10500.000000     0.004522 
10560.000000     0.004452 
10620.000000     0.004386 
10680.000000     0.004324 
10740.000000     0.004262 
10800.000000     0.004200 
10860.000000     0.004142 
10920.000000     0.004088 
10980.000000     0.004030 
11040.000000     0.003979 
11100.000000     0.003925 
11160.000000     0.003875 
11220.000000     0.003828 
11280.000000     0.003778 
11340.000000     0.003732 
11400.000000     0.003689 
11460.000000     0.003642 
11520.000000     0.003604 
11580.000000     0.003561 
11640.000000     0.003522 
11700.000000     0.003480 
11760.000000     0.003445 
11820.000000     0.003406 
11880.000000     0.003371 
11940.000000     0.003336 
12000.000000     0.003301 
12060.000000     0.003270 
12120.000000     0.003239 
12180.000000     0.003208 
12240.000000     0.003177 
12300.000000     0.003146 
12360.000000     0.003119 
12420.000000     0.003092 
12480.000000     0.003061 
12540.000000     0.003038 
12600.000000     0.003011 
12660.000000     0.002984 
12720.000000     0.002960 
12780.000000     0.002937 
12840.000000     0.002914 
12900.000000     0.002891 
12960.000000     0.002871 
13020.000000     0.002848 
13080.000000     0.002829 
13140.000000     0.002805 
13200.000000     0.002786 
13260.000000     0.002767 
13320.000000     0.002747 
13380.000000     0.002732 
13440.000000     0.002712 
13500.000000     0.002693 
13560.000000     0.002678 
13620.000000     0.002662 
13680.000000     0.002647 
13740.000000     0.002627 
13800.000000     0.002612 
13860.000000     0.002596 
13920.000000     0.002585 
13980.000000     0.002569 
14040.000000     0.002554 
14100.000000     0.002542 
14160.000000     0.002526 
14220.000000     0.002515 
14280.000000     0.002499 
14340.000000     0.002488 
14400.000000     0.002476 
14460.000000     0.002464 
14520.000000     0.002453 
14580.000000     0.002441 
14640.000000     0.002430 
14700.000000     0.002418 
14760.000000     0.002406 
14820.000000     0.002399 
14880.000000     0.002387 
14940.000000     0.002379 
15000.000000     0.002368 
15060.000000     0.002356 
15120.000000     0.002348 
15180.000000     0.002340 
15240.000000     0.002329 
15300.000000     0.002321 
15360.000000     0.002313 
15420.000000     0.002302 
15480.000000     0.002294 
15540.000000     0.002286 
15600.000000     0.002278 
15660.000000     0.002271 
15720.000000     0.002263 
15780.000000     0.002255 
15840.000000     0.002247 
15900.000000     0.002240 
15960.000000     0.002232 
16020.000000     0.002228 
16080.000000     0.002220 
16140.000000     0.002213 
16200.000000     0.002205 
16260.000000     0.002201 
16320.000000     0.002193 
16380.000000     0.002185 
16440.000000     0.002182 
16500.000000     0.002174 
16560.000000     0.002166 
16620.000000     0.002162 
16680.000000     0.002154 
16740.000000     0.002151 
16800.000000     0.002143 
16860.000000     0.002139 
16920.000000     0.002135 
16980.000000     0.002127 
17040.000000     0.002123 
17100.000000     0.002116 
17160.000000     0.002112 
17220.000000     0.002108 
17280.000000     0.002104 
17340.000000     0.002096 
17400.000000     0.002092 
17460.000000     0.002089 
17520.000000     0.002081 
17580.000000     0.002077 
17640.000000     0.002073 
17700.000000     0.002069 
17760.000000     0.002065 
17820.000000     0.002061 
17880.000000     0.002058 
17940.000000     0.002050 
18000.000000     0.002046 
18060.000000     0.002042 
18120.000000     0.002038 
18180.000000     0.002034 
18240.000000     0.002030 
18300.000000     0.002027 
18360.000000     0.002023 
18420.000000     0.002019 
18480.000000     0.002015 
18540.000000     0.002011 
18600.000000     0.002007 
18660.000000     0.002003 

[Forcing]
name       = 1051650L
function   = timeseries
timeInterpolation = linear
quantity   = time
unit       = minutes since 2010-11-09 00:00:00
quantity   = lateral_discharge
unit       = m3/s
    0.000000     0.000505 
   60.000000     0.000505 
  120.000000     0.000505 
  180.000000     0.000503 
  240.000000     0.000503 
  300.000000     0.000503 
  360.000000     0.000501 
  420.000000     0.000501 
  480.000000     0.000501 
  540.000000     0.000499 
  600.000000     0.000499 
  660.000000     0.000499 
  720.000000     0.000497 
  780.000000     0.000497 
  840.000000     0.000497 
  900.000000     0.000497 
  960.000000     0.000495 
 1020.000000     0.000495 
 1080.000000     0.000495 
 1140.000000     0.000495 
 1200.000000     0.000493 
 1260.000000     0.000493 
 1320.000000     0.000493 
 1380.000000     0.000493 
 1440.000000     0.000491 
 1500.000000     0.000491 
 1560.000000     0.000491 
 1620.000000     0.000491 
 1680.000000     0.000491 
 1740.000000     0.000489 
 1800.000000     0.000489 
 1860.000000     0.000489 
 1920.000000     0.000489 
 1980.000000     0.000487 
 2040.000000     0.000487 
 2100.000000     0.000487 
 2160.000000     0.000487 
 2220.000000     0.000487 
 2280.000000     0.000485 
 2340.000000     0.000485 
 2400.000000     0.000485 
 2460.000000     0.000485 
 2520.000000     0.000485 
 2580.000000     0.000483 
 2640.000000     0.000483 
 2700.000000     0.000483 
 2760.000000     0.000483 
 2820.000000     0.000483 
 2880.000000     0.000483 
 2940.000000     0.000625 
 3000.000000     0.000775 
 3060.000000     0.000923 
 3120.000000     0.001069 
 3180.000000     0.001215 
 3240.000000     0.001359 
 3300.000000     0.001501 
 3360.000000     0.001643 
 3420.000000     0.001783 
 3480.000000     0.001921 
 3540.000000     0.002057 
 3600.000000     0.002190 
 3660.000000     0.002324 
 3720.000000     0.002456 
 3780.000000     0.002586 
[...]
12600.000000     0.000445 
12660.000000     0.000441 
12720.000000     0.000437 
12780.000000     0.000434 
12840.000000     0.000430 
12900.000000     0.000427 
12960.000000     0.000424 
13020.000000     0.000421 
13080.000000     0.000418 
13140.000000     0.000414 
13200.000000     0.000411 
13260.000000     0.000409 
13320.000000     0.000406 
13380.000000     0.000403 
13440.000000     0.000401 
13500.000000     0.000398 
13560.000000     0.000395 
13620.000000     0.000393 
13680.000000     0.000391 
13740.000000     0.000388 
13800.000000     0.000386 
13860.000000     0.000383 
13920.000000     0.000382 
13980.000000     0.000379 
14040.000000     0.000377 
14100.000000     0.000375 
14160.000000     0.000373 
14220.000000     0.000371 
14280.000000     0.000369 
14340.000000     0.000367 
14400.000000     0.000366 
14460.000000     0.000364 
14520.000000     0.000362 
14580.000000     0.000360 
14640.000000     0.000359 
14700.000000     0.000357 
14760.000000     0.000355 
14820.000000     0.000354 
14880.000000     0.000352 
14940.000000     0.000351 
15000.000000     0.000350 
15060.000000     0.000348 
15120.000000     0.000347 
15180.000000     0.000346 
15240.000000     0.000344 
15300.000000     0.000343 
15360.000000     0.000342 
15420.000000     0.000340 
15480.000000     0.000339 
15540.000000     0.000338 
15600.000000     0.000336 
15660.000000     0.000335 
15720.000000     0.000334 
15780.000000     0.000333 
15840.000000     0.000332 
15900.000000     0.000331 
15960.000000     0.000330 
16020.000000     0.000329 
16080.000000     0.000328 
16140.000000     0.000327 
16200.000000     0.000326 
16260.000000     0.000325 
16320.000000     0.000324 
16380.000000     0.000323 
16440.000000     0.000322 
16500.000000     0.000321 
16560.000000     0.000320 
16620.000000     0.000319 
16680.000000     0.000318 
16740.000000     0.000318 
16800.000000     0.000316 
16860.000000     0.000316 
16920.000000     0.000315 
16980.000000     0.000314 
17040.000000     0.000314 
17100.000000     0.000312 
17160.000000     0.000312 
17220.000000     0.000311 
17280.000000     0.000311 
17340.000000     0.000310 
17400.000000     0.000309 
17460.000000     0.000308 
17520.000000     0.000307 
17580.000000     0.000307 
17640.000000     0.000306 
17700.000000     0.000306 
17760.000000     0.000305 
17820.000000     0.000304 
17880.000000     0.000304 
17940.000000     0.000303 
18000.000000     0.000302 
18060.000000     0.000302 
18120.000000     0.000301 
18180.000000     0.000300 
18240.000000     0.000300 
18300.000000     0.000299 
18360.000000     0.000299 
18420.000000     0.000298 
18480.000000     0.000298 
18540.000000     0.000297 
18600.000000     0.000296 
18660.000000     0.000296 

[Forcing]
name       = 1053530L
function   = timeseries
timeInterpolation = linear
quantity   = time
unit       = minutes since 2010-11-09 00:00:00
quantity   = lateral_discharge
unit       = m3/s
    0.000000     0.000313 
   60.000000     0.000313 
  120.000000     0.000313 
  180.000000     0.000312 
  240.000000     0.000312 
  300.000000     0.000312 
  360.000000     0.000311 
  420.000000     0.000311 
  480.000000     0.000311 
  540.000000     0.000310 
  600.000000     0.000310 
  660.000000     0.000310 
  720.000000     0.000308 
  780.000000     0.000308 
  840.000000     0.000308 
  900.000000     0.000308 
  960.000000     0.000307 
 1020.000000     0.000307 
 1080.000000     0.000307 
 1140.000000     0.000307 
 1200.000000     0.000306 
 1260.000000     0.000306 
 1320.000000     0.000306 
 1380.000000     0.000306 
 1440.000000     0.000305 
 1500.000000     0.000305 
 1560.000000     0.000305 
 1620.000000     0.000305 
 1680.000000     0.000305 
 1740.000000     0.000303 
 1800.000000     0.000303 
 1860.000000     0.000303 
 1920.000000     0.000303 
 1980.000000     0.000302 
 2040.000000     0.000302 
 2100.000000     0.000302 
 2160.000000     0.000302 
 2220.000000     0.000302 
 2280.000000     0.000301 
 2340.000000     0.000301 
 2400.000000     0.000301 
 2460.000000     0.000301 
 2520.000000     0.000301 
 2580.000000     0.000299 
 2640.000000     0.000299 
 2700.000000     0.000299 
 2760.000000     0.000299 
 2820.000000     0.000299 
 2880.000000     0.000300 
 2940.000000     0.000388 
 3000.000000     0.000481 
 3060.000000     0.000573 
 3120.000000     0.000663 
 3180.000000     0.000754 
 3240.000000     0.000843 
 3300.000000     0.000931 
 3360.000000     0.001019 
 3420.000000     0.001106 
 3480.000000     0.001192 
 3540.000000     0.001276 
 3600.000000     0.001359 
 3660.000000     0.001442 
 3720.000000     0.001524 
 3780.000000     0.001605 
 3840.000000     0.001685 
 3900.000000     0.001763 
 3960.000000     0.001841 
 4020.000000     0.001918 
 4080.000000     0.001993 
 4140.000000     0.002069 
 4200.000000     0.002143 
 4260.000000     0.002216 
 4320.000000     0.002288 
 4380.000000     0.002360 
 4440.000000     0.002430 
 4500.000000     0.002499 
 4560.000000     0.002568 
 4620.000000     0.002636 
 4680.000000     0.002703 
 4740.000000     0.002769 
 4800.000000     0.002834 
 4860.000000     0.002899 
 4920.000000     0.002962 
 4980.000000     0.003025 
 5040.000000     0.003087 
 5100.000000     0.003149 
 5160.000000     0.003209 
 5220.000000     0.003269 
 5280.000000     0.003328 
 5340.000000     0.003386 
 5400.000000     0.003444 
 5460.000000     0.003501 
 5520.000000     0.003556 
 5580.000000     0.003612 
 5640.000000     0.003667 
 5700.000000     0.003721 
 5760.000000     0.003774 
 5820.000000     0.003827 
 5880.000000     0.003878 
 5940.000000     0.003930 
 6000.000000     0.003980 
 6060.000000     0.004031 
 6120.000000     0.004080 
 6180.000000     0.004129 
 6240.000000     0.004177 
 6300.000000     0.004224 
 6360.000000     0.004271 
 6420.000000     0.004317 
 6480.000000     0.004364 
 6540.000000     0.004409 
 6600.000000     0.004453 
 6660.000000     0.004497 
 6720.000000     0.004541 
 6780.000000     0.004585 
 6840.000000     0.004628 
 6900.000000     0.004670 
 6960.000000     0.004711 
 7020.000000     0.004753 
 7080.000000     0.004794 
 7140.000000     0.004835 
 7200.000000     0.004873 
 7260.000000     0.004749 
 7320.000000     0.004620 
 7380.000000     0.004496 
 7440.000000     0.004375 
 7500.000000     0.004258 
 7560.000000     0.004145 
 7620.000000     0.004035 
 7680.000000     0.003929 
 7740.000000     0.003826 
 7800.000000     0.003728 
 7860.000000     0.003631 
 7920.000000     0.003539 
 7980.000000     0.003450 
 8040.000000     0.003363 
 8100.000000     0.003280 
 8160.000000     0.003200 
 8220.000000     0.003122 
 8280.000000     0.003046 
 8340.000000     0.002973 
 8400.000000     0.002904 
 8460.000000     0.002835 
 8520.000000     0.002769 
 8580.000000     0.002707 
 8640.000000     0.002645 
 8700.000000     0.002586 
 8760.000000     0.002528 
 8820.000000     0.002472 
 8880.000000     0.002418 
 8940.000000     0.002367 
 9000.000000     0.002316 
 9060.000000     0.002267 
 9120.000000     0.002221 
 9180.000000     0.002176 
 9240.000000     0.002132 
 9300.000000     0.002089 
 9360.000000     0.002047 
 9420.000000     0.002008 
 9480.000000     0.001969 
 9540.000000     0.001931 
 9600.000000     0.001895 
 9660.000000     0.001860 
 9720.000000     0.001826 
 9780.000000     0.001793 
 9840.000000     0.001760 
 9900.000000     0.001730 
 9960.000000     0.001700 
10020.000000     0.001671 
10080.000000     0.001643 
10140.000000     0.001616 
10200.000000     0.001589 
10260.000000     0.001563 
10320.000000     0.001539 
10380.000000     0.001514 
10440.000000     0.001491 
10500.000000     0.001468 
10560.000000     0.001446 
10620.000000     0.001424 
10680.000000     0.001404 
10740.000000     0.001384 
10800.000000     0.001364 
10860.000000     0.001345 
10920.000000     0.001327 
10980.000000     0.001309 
11040.000000     0.001292 
11100.000000     0.001275 
11160.000000     0.001258 
11220.000000     0.001243 
11280.000000     0.001227 
11340.000000     0.001212 
11400.000000     0.001198 
11460.000000     0.001183 
11520.000000     0.001170 
11580.000000     0.001156 
11640.000000     0.001144 
11700.000000     0.001130 
11760.000000     0.001119 
11820.000000     0.001106 
11880.000000     0.001095 
11940.000000     0.001083 
12000.000000     0.001072 
12060.000000     0.001062 
12120.000000     0.001052 
12180.000000     0.001042 
12240.000000     0.001032 
12300.000000     0.001022 
12360.000000     0.001013 
12420.000000     0.001004 
12480.000000     0.000994 
12540.000000     0.000987 
12600.000000     0.000978 
12660.000000     0.000969 
12720.000000     0.000961 
12780.000000     0.000954 
12840.000000     0.000946 
12900.000000     0.000939 
12960.000000     0.000932 
13020.000000     0.000925 
13080.000000     0.000919 
13140.000000     0.000911 
13200.000000     0.000905 
13260.000000     0.000898 
13320.000000     0.000892 
13380.000000     0.000887 
13440.000000     0.000881 
13500.000000     0.000875 
13560.000000     0.000869 
13620.000000     0.000864 
13680.000000     0.000859 
13740.000000     0.000853 
13800.000000     0.000848 
13860.000000     0.000843 
13920.000000     0.000839 
13980.000000     0.000834 
14040.000000     0.000829 
14100.000000     0.000825 
14160.000000     0.000820 
14220.000000     0.000817 
14280.000000     0.000812 
14340.000000     0.000808 
14400.000000     0.000804 
14460.000000     0.000800 
14520.000000     0.000797 
14580.000000     0.000793 
14640.000000     0.000789 
14700.000000     0.000785 
14760.000000     0.000781 
14820.000000     0.000779 
14880.000000     0.000775 
14940.000000     0.000773 
15000.000000     0.000769 
15060.000000     0.000765 
15120.000000     0.000763 
15180.000000     0.000760 
15240.000000     0.000756 
15300.000000     0.000754 
15360.000000     0.000751 
15420.000000     0.000747 
15480.000000     0.000745 
15540.000000     0.000742 
15600.000000     0.000740 
15660.000000     0.000737 
15720.000000     0.000735 
15780.000000     0.000732 
15840.000000     0.000730 
15900.000000     0.000727 
15960.000000     0.000725 
16020.000000     0.000724 
16080.000000     0.000721 
16140.000000     0.000719 
16200.000000     0.000716 
16260.000000     0.000715 
16320.000000     0.000712 
16380.000000     0.000710 
16440.000000     0.000708 
16500.000000     0.000706 
16560.000000     0.000703 
16620.000000     0.000702 
16680.000000     0.000700 
16740.000000     0.000698 
16800.000000     0.000696 
16860.000000     0.000695 
16920.000000     0.000693 
16980.000000     0.000691 
17040.000000     0.000690 
17100.000000     0.000687 
17160.000000     0.000686 
17220.000000     0.000685 
17280.000000     0.000683 
17340.000000     0.000681 
17400.000000     0.000679 
17460.000000     0.000678 
17520.000000     0.000676 
17580.000000     0.000674 
17640.000000     0.000673 
17700.000000     0.000672 
17760.000000     0.000671 
17820.000000     0.000669 
17880.000000     0.000668 
17940.000000     0.000666 
18000.000000     0.000664 
18060.000000     0.000663 
18120.000000     0.000662 
18180.000000     0.000661 
18240.000000     0.000659 
18300.000000     0.000658 
18360.000000     0.000657 
18420.000000     0.000656 
18480.000000     0.000654 
18540.000000     0.000653 
18600.000000     0.000652 
18660.000000     0.000651 

[Forcing]
name       = 1054260L
function   = timeseries
timeInterpolation = linear
quantity   = time
unit       = minutes since 2010-11-09 00:00:00
quantity   = lateral_discharge
unit       = m3/s
    0.000000     0.000554 
   60.000000     0.000554 
  120.000000     0.000554 
  180.000000     0.000552 
  240.000000     0.000552 
  300.000000     0.000552 
  360.000000     0.000550 
  420.000000     0.000550 
  480.000000     0.000550 
  540.000000     0.000547 
  600.000000     0.000547 
  660.000000     0.000547 
  720.000000     0.000545 
  780.000000     0.000545 
  840.000000     0.000545 
  900.000000     0.000545 
  960.000000     0.000543 
 1020.000000     0.000543 
 1080.000000     0.000543 
 1140.000000     0.000543 
 1200.000000     0.000541 
 1260.000000     0.000541 
 1320.000000     0.000541 
 1380.000000     0.000541 
 1440.000000     0.000538 
 1500.000000     0.000538 
 1560.000000     0.000538 
 1620.000000     0.000538 
 1680.000000     0.000538 
 1740.000000     0.000536 
 1800.000000     0.000536 
 1860.000000     0.000536 
 1920.000000     0.000536 
 1980.000000     0.000534 
 2040.000000     0.000534 
 2100.000000     0.000534 
 2160.000000     0.000534 
 2220.000000     0.000534 
 2280.000000     0.000532 
 2340.000000     0.000532 
 2400.000000     0.000532 
 2460.000000     0.000532 
 2520.000000     0.000532 
 2580.000000     0.000530 
 2640.000000     0.000530 
 2700.000000     0.000530 
 2760.000000     0.000530 
 2820.000000     0.000530 
 2880.000000     0.000530 
 2940.000000     0.000686 
 3000.000000     0.000850 
 3060.000000     0.001013 
 3120.000000     0.001173 
 3180.000000     0.001333 
 3240.000000     0.001491 
 3300.000000     0.001647 
 3360.000000     0.001803 
 3420.000000     0.001956 
 3480.000000     0.002107 
 3540.000000     0.002257 
 3600.000000     0.002403 
 3660.000000     0.002550 
 3720.000000     0.002695 
 3780.000000     0.002837 
 3840.000000     0.002980 
 3900.000000     0.003118 
 3960.000000     0.003256 
 4020.000000     0.003391 
 4080.000000     0.003525 
 4140.000000     0.003658 
 4200.000000     0.003790 
 4260.000000     0.003919 
 4320.000000     0.004045 
 4380.000000     0.004172 
 4440.000000     0.004297 
 4500.000000     0.004419 
 4560.000000     0.004542 
 4620.000000     0.004662 
 4680.000000     0.004780 
 4740.000000     0.004895 
 4800.000000     0.005011 
 4860.000000     0.005127 
 4920.000000     0.005238 
 4980.000000     0.005349 
 5040.000000     0.005458 
 5100.000000     0.005567 
 5160.000000     0.005674 
 5220.000000     0.005781 
 5280.000000     0.005885 
 5340.000000     0.005988 
 5400.000000     0.006090 
 5460.000000     0.006190 
 5520.000000     0.006288 
 5580.000000     0.006386 
 5640.000000     0.006484 
 5700.000000     0.006580 
 5760.000000     0.006673 
 5820.000000     0.006766 
 5880.000000     0.006858 
 5940.000000     0.006949 
 6000.000000     0.007038 
 6060.000000     0.007127 
 6120.000000     0.007214 
 6180.000000     0.007300 
 6240.000000     0.007385 
 6300.000000     0.007470 
 6360.000000     0.007552 
 6420.000000     0.007634 
 6480.000000     0.007717 
 6540.000000     0.007797 
 6600.000000     0.007874 
 6660.000000     0.007952 
 6720.000000     0.008030 
 6780.000000     0.008108 
 6840.000000     0.008184 
 6900.000000     0.008257 
 6960.000000     0.008331 
 7020.000000     0.008404 
 7080.000000     0.008477 
 7140.000000     0.008549 
 7200.000000     0.008617 
 7260.000000     0.008396 
 7320.000000     0.008170 
 7380.000000     0.007949 
 7440.000000     0.007736 
 7500.000000     0.007529 
 7560.000000     0.007329 
 7620.000000     0.007135 
 7680.000000     0.006948 
 7740.000000     0.006766 
 7800.000000     0.006592 
 7860.000000     0.006421 
 7920.000000     0.006258 
 7980.000000     0.006101 
 8040.000000     0.005947 
 8100.000000     0.005800 
 8160.000000     0.005658 
 8220.000000     0.005520 
 8280.000000     0.005386 
 8340.000000     0.005257 
 8400.000000     0.005135 
 8460.000000     0.005013 
 8520.000000     0.004897 
 8580.000000     0.004786 
 8640.000000     0.004677 
 8700.000000     0.004572 
 8760.000000     0.004470 
 8820.000000     0.004372 
 8880.000000     0.004276 
 8940.000000     0.004185 
 9000.000000     0.004096 
 9060.000000     0.004009 
 9120.000000     0.003927 
 9180.000000     0.003847 
 9240.000000     0.003769 
 9300.000000     0.003693 
 9360.000000     0.003620 
 9420.000000     0.003551 
 9480.000000     0.003482 
 9540.000000     0.003415 
 9600.000000     0.003351 
 9660.000000     0.003288 
 9720.000000     0.003228 
 9780.000000     0.003170 
 9840.000000     0.003113 
 9900.000000     0.003059 
 9960.000000     0.003006 
10020.000000     0.002955 
10080.000000     0.002906 
10140.000000     0.002857 
10200.000000     0.002810 
10260.000000     0.002763 
10320.000000     0.002721 
10380.000000     0.002677 
10440.000000     0.002637 
10500.000000     0.002596 
10560.000000     0.002556 
10620.000000     0.002519 
10680.000000     0.002483 
10740.000000     0.002447 
10800.000000     0.002412 
10860.000000     0.002378 
10920.000000     0.002347 
10980.000000     0.002314 
11040.000000     0.002285 
11100.000000     0.002254 
11160.000000     0.002225 
11220.000000     0.002198 
11280.000000     0.002169 
11340.000000     0.002143 
11400.000000     0.002118 
11460.000000     0.002091 
11520.000000     0.002069 
11580.000000     0.002045 
11640.000000     0.002022 
11700.000000     0.001998 
11760.000000     0.001978 
11820.000000     0.001956 
11880.000000     0.001936 
11940.000000     0.001916 
12000.000000     0.001896 
12060.000000     0.001878 
12120.000000     0.001860 
12180.000000     0.001842 
12240.000000     0.001824 
12300.000000     0.001807 
12360.000000     0.001791 
12420.000000     0.001776 
12480.000000     0.001758 
12540.000000     0.001744 
12600.000000     0.001729 
12660.000000     0.001713 
12720.000000     0.001700 
12780.000000     0.001687 
12840.000000     0.001673 
12900.000000     0.001660 
12960.000000     0.001649 
13020.000000     0.001635 
13080.000000     0.001624 
13140.000000     0.001611 
13200.000000     0.001600 
13260.000000     0.001589 
13320.000000     0.001577 
13380.000000     0.001569 
13440.000000     0.001557 
13500.000000     0.001546 
13560.000000     0.001537 
13620.000000     0.001529 
13680.000000     0.001520 
13740.000000     0.001509 
13800.000000     0.001500 
13860.000000     0.001491 
13920.000000     0.001484 
13980.000000     0.001475 
14040.000000     0.001466 
14100.000000     0.001460 
14160.000000     0.001451 
14220.000000     0.001444 
14280.000000     0.001435 
14340.000000     0.001428 
14400.000000     0.001422 
14460.000000     0.001415 
14520.000000     0.001408 
14580.000000     0.001402 
14640.000000     0.001395 
14700.000000     0.001388 
14760.000000     0.001382 
14820.000000     0.001377 
14880.000000     0.001371 
14940.000000     0.001366 
15000.000000     0.001359 
15060.000000     0.001353 
15120.000000     0.001348 
15180.000000     0.001344 
15240.000000     0.001337 
15300.000000     0.001333 
15360.000000     0.001328 
15420.000000     0.001322 
15480.000000     0.001317 
15540.000000     0.001313 
15600.000000     0.001308 
15660.000000     0.001304 
15720.000000     0.001299 
15780.000000     0.001295 
15840.000000     0.001290 
15900.000000     0.001286 
15960.000000     0.001282 
16020.000000     0.001279 
16080.000000     0.001275 
16140.000000     0.001270 
16200.000000     0.001266 
16260.000000     0.001264 
16320.000000     0.001259 
16380.000000     0.001255 
16440.000000     0.001253 
16500.000000     0.001248 
16560.000000     0.001244 
16620.000000     0.001242 
16680.000000     0.001237 
16740.000000     0.001235 
16800.000000     0.001230 
16860.000000     0.001228 
16920.000000     0.001226 
16980.000000     0.001222 
17040.000000     0.001219 
17100.000000     0.001215 
17160.000000     0.001213 
17220.000000     0.001210 
17280.000000     0.001208 
17340.000000     0.001204 
17400.000000     0.001201 
17460.000000     0.001199 
17520.000000     0.001195 
17580.000000     0.001193 
17640.000000     0.001190 
17700.000000     0.001188 
17760.000000     0.001186 
17820.000000     0.001184 
17880.000000     0.001181 
17940.000000     0.001177 
18000.000000     0.001175 
18060.000000     0.001173 
18120.000000     0.001170 
18180.000000     0.001168 
18240.000000     0.001166 
18300.000000     0.001164 
18360.000000     0.001161 
18420.000000     0.001159 
18480.000000     0.001157 
18540.000000     0.001155 
18600.000000     0.001153 
18660.000000     0.001150 
