# Generated with D-HyDAMO in delftd3fmpy v.2.0.3 on 2023-03-02T12:34:45.808439Z.
# Tested and compatible with D-Flow FM Deltares, D-Flow FM Version 5.00.024.74498M, DIMRset Deltares, DIMR_EXE Version 2.00.00.140737 (Win64) (Win64) and D-HYDRO suite 1D2D D-HYDRO Suite 2022.03 1D2D,.
# 
[General]
fileVersion = 3.00
fileType = crossDef

[definition]
	id = 1050093
	type = circle
	thalweg = 0.0
	diameter = 0.6
	frictionId = Strickler_75.0

[definition]
	id = 1050136
	type = circle
	thalweg = 0.0
	diameter = 0.5
	frictionId = Strickler_75.0

[definition]
	id = 1050160
	type = circle
	thalweg = 0.0
	diameter = 0.5
	frictionId = Strickler_75.0

[definition]
	id = 1050249
	type = circle
	thalweg = 0.0
	diameter = 0.5
	frictionId = Strickler_75.0

[definition]
	id = 1050260
	type = circle
	thalweg = 0.0
	diameter = 0.5
	frictionId = Strickler_75.0

[definition]
	id = 1050221
	type = circle
	thalweg = 0.0
	diameter = 1.0
	frictionId = Strickler_75.0

[definition]
	id = 1050435
	type = circle
	thalweg = 0.0
	diameter = 0.9
	frictionId = Strickler_75.0

[definition]
	id = 1050422
	type = circle
	thalweg = 0.0
	diameter = 1.5
	frictionId = Strickler_75.0

[definition]
	id = 1050371
	type = circle
	thalweg = 0.0
	diameter = 0.5
	frictionId = Strickler_75.0

[definition]
	id = 1050375
	type = circle
	thalweg = 0.0
	diameter = 0.5
	frictionId = Strickler_75.0

[definition]
	id = 1050374
	type = circle
	thalweg = 0.0
	diameter = 0.5
	frictionId = Strickler_75.0

[definition]
	id = 1050373
	type = circle
	thalweg = 0.0
	diameter = 0.5
	frictionId = Strickler_75.0

[definition]
	id = 1050410
	type = circle
	thalweg = 0.0
	diameter = 0.5
	frictionId = Strickler_75.0

[definition]
	id = 1050408
	type = circle
	thalweg = 0.0
	diameter = 0.8
	frictionId = Strickler_75.0

[definition]
	id = 1050412
	type = circle
	thalweg = 0.0
	diameter = 1.2
	frictionId = Strickler_75.0

[definition]
	id = 1050407
	type = circle
	thalweg = 0.0
	diameter = 0.6
	frictionId = Strickler_75.0

[definition]
	id = 1050363
	type = circle
	thalweg = 0.0
	diameter = 0.5
	frictionId = Strickler_75.0

[definition]
	id = 1050376
	type = circle
	thalweg = 0.0
	diameter = 0.5
	frictionId = Strickler_75.0

[definition]
	id = 1050387
	type = circle
	thalweg = 0.0
	diameter = 0.5
	frictionId = Strickler_75.0

[definition]
	id = 1050383
	type = circle
	thalweg = 0.0
	diameter = 0.5
	frictionId = Strickler_75.0

[definition]
	id = 1050005
	type = circle
	thalweg = 0.0
	diameter = 0.7
	frictionId = Strickler_75.0

[definition]
	id = 1050095
	type = circle
	thalweg = 0.0
	diameter = 0.5
	frictionId = Strickler_75.0

[definition]
	id = 1050126
	type = circle
	thalweg = 0.0
	diameter = 0.7
	frictionId = Strickler_75.0

[definition]
	id = 1050131
	type = circle
	thalweg = 0.0
	diameter = 0.5
	frictionId = Strickler_75.0

[definition]
	id = 1050233
	type = circle
	thalweg = 0.0
	diameter = 0.8
	frictionId = Strickler_75.0

[definition]
	id = 1050245
	type = circle
	thalweg = 0.0
	diameter = 0.5
	frictionId = Strickler_75.0

[definition]
	id = 1050252
	type = circle
	thalweg = 0.0
	diameter = 0.3
	frictionId = Strickler_75.0

[definition]
	id = 1050381
	type = circle
	thalweg = 0.0
	diameter = 0.2
	frictionId = Strickler_100.0

[definition]
	id = 1050388
	type = circle
	thalweg = 0.0
	diameter = 0.3
	frictionId = Strickler_100.0

[definition]
	id = 1050333
	type = circle
	thalweg = 0.0
	diameter = 0.4
	frictionId = Strickler_100.0

[definition]
	id = 1050027
	type = circle
	thalweg = 0.0
	diameter = 0.5
	frictionId = Strickler_75.0

[definition]
	id = 1050081
	type = circle
	thalweg = 0.0
	diameter = 0.5
	frictionId = Strickler_75.0

[definition]
	id = 1050108
	type = circle
	thalweg = 0.0
	diameter = 0.5
	frictionId = Strickler_75.0

[definition]
	id = 1050121
	type = circle
	thalweg = 0.0
	diameter = 0.5
	frictionId = Strickler_75.0

[definition]
	id = 1050125
	type = circle
	thalweg = 0.0
	diameter = 0.6
	frictionId = Strickler_75.0

[definition]
	id = 1050240
	type = rectangle
	thalweg = 0.0
	height = 1.0
	width = 1.8
	closed = 1
	frictionId = Strickler_75.0

[definition]
	id = 1050184
	type = circle
	thalweg = 0.0
	diameter = 0.5
	frictionId = Strickler_75.0

[definition]
	id = 1050011
	type = circle
	thalweg = 0.0
	diameter = 0.5
	frictionId = Strickler_75.0

[definition]
	id = 1050060
	type = circle
	thalweg = 0.0
	diameter = 0.8
	frictionId = Strickler_75.0

[definition]
	id = 1050073
	type = circle
	thalweg = 0.0
	diameter = 0.9
	frictionId = Strickler_75.0

[definition]
	id = 1050083
	type = circle
	thalweg = 0.0
	diameter = 0.5
	frictionId = Strickler_75.0

[definition]
	id = 1050094
	type = circle
	thalweg = 0.0
	diameter = 0.7
	frictionId = Strickler_75.0

[definition]
	id = 1050096
	type = circle
	thalweg = 0.0
	diameter = 0.5
	frictionId = Strickler_75.0

[definition]
	id = 1050100
	type = circle
	thalweg = 0.0
	diameter = 0.5
	frictionId = Strickler_75.0

[definition]
	id = 1050225
	type = circle
	thalweg = 0.0
	diameter = 0.5
	frictionId = Strickler_75.0

[definition]
	id = 1050336
	type = circle
	thalweg = 0.0
	diameter = 0.8
	frictionId = Strickler_75.0

[definition]
	id = 1050172
	type = circle
	thalweg = 0.0
	diameter = 0.9
	frictionId = Strickler_75.0

[definition]
	id = 1050200
	type = circle
	thalweg = 0.0
	diameter = 0.5
	frictionId = Strickler_75.0

[definition]
	id = 1050263
	type = circle
	thalweg = 0.0
	diameter = 1.4
	frictionId = Strickler_30.0

[definition]
	id = 1050436
	type = circle
	thalweg = 0.0
	diameter = 0.5
	frictionId = Strickler_75.0

[definition]
	id = 1050012
	type = circle
	thalweg = 0.0
	diameter = 0.5
	frictionId = Strickler_75.0

[definition]
	id = 1160113
	type = circle
	thalweg = 0.0
	diameter = 0.5
	frictionId = Strickler_75.0

[definition]
	id = 1050401
	type = circle
	thalweg = 0.0
	diameter = 0.6
	frictionId = Strickler_75.0

[definition]
	id = 1050402
	type = circle
	thalweg = 0.0
	diameter = 0.5
	frictionId = Strickler_75.0

[definition]
	id = 1050395
	type = circle
	thalweg = 0.0
	diameter = 0.5
	frictionId = Strickler_75.0

[definition]
	id = 1050033
	type = circle
	thalweg = 0.0
	diameter = 0.3
	frictionId = Strickler_75.0

[definition]
	id = 1050092
	type = circle
	thalweg = 0.0
	diameter = 0.6
	frictionId = Strickler_75.0

[definition]
	id = 1050297
	type = circle
	thalweg = 0.0
	diameter = 0.7
	frictionId = Strickler_75.0

[definition]
	id = 1050132
	type = circle
	thalweg = 0.0
	diameter = 0.5
	frictionId = Strickler_75.0

[definition]
	id = 1050023
	type = circle
	thalweg = 0.0
	diameter = 0.5
	frictionId = Strickler_75.0

[definition]
	id = 1050105
	type = circle
	thalweg = 0.0
	diameter = 0.4
	frictionId = Strickler_75.0

[definition]
	id = 1050227
	type = circle
	thalweg = 0.0
	diameter = 1.0
	frictionId = Strickler_75.0

[definition]
	id = 1050294
	type = circle
	thalweg = 0.0
	diameter = 0.5
	frictionId = Strickler_75.0

[definition]
	id = 1050437
	type = circle
	thalweg = 0.0
	diameter = 0.6
	frictionId = Strickler_75.0

[definition]
	id = 1050079
	type = circle
	thalweg = 0.0
	diameter = 1.25
	frictionId = Strickler_75.0

[definition]
	id = 1050332
	type = circle
	thalweg = 0.0
	diameter = 0.4
	frictionId = Strickler_90.0

[definition]
	id = 1050056
	type = circle
	thalweg = 0.0
	diameter = 0.5
	frictionId = Strickler_75.0

[definition]
	id = 1050141
	type = circle
	thalweg = 0.0
	diameter = 0.8
	frictionId = Strickler_75.0

[definition]
	id = 1050176
	type = rectangle
	thalweg = 0.0
	height = 1.0
	width = 1.4
	closed = 1
	frictionId = Strickler_75.0

[definition]
	id = 1050248
	type = circle
	thalweg = 0.0
	diameter = 0.5
	frictionId = Strickler_75.0

[definition]
	id = 1050034
	type = circle
	thalweg = 0.0
	diameter = 0.5
	frictionId = Strickler_75.0

[definition]
	id = 1050104
	type = circle
	thalweg = 0.0
	diameter = 0.5
	frictionId = Strickler_75.0

[definition]
	id = 1050133
	type = circle
	thalweg = 0.0
	diameter = 0.5
	frictionId = Strickler_75.0

[definition]
	id = 1050146
	type = circle
	thalweg = 0.0
	diameter = 0.8
	frictionId = Strickler_75.0

[definition]
	id = 1050097
	type = circle
	thalweg = 0.0
	diameter = 0.5
	frictionId = Strickler_75.0

[definition]
	id = 1050118
	type = circle
	thalweg = 0.0
	diameter = 0.4
	frictionId = Strickler_75.0

[definition]
	id = 1050147
	type = circle
	thalweg = 0.0
	diameter = 0.9
	frictionId = Strickler_75.0

[definition]
	id = 1050170
	type = circle
	thalweg = 0.0
	diameter = 0.8
	frictionId = Strickler_75.0

[definition]
	id = 1050310
	type = circle
	thalweg = 0.0
	diameter = 0.3
	frictionId = Strickler_75.0

[definition]
	id = 1050378
	type = circle
	thalweg = 0.0
	diameter = 0.4
	frictionId = Strickler_75.0

[definition]
	id = 1050063
	type = circle
	thalweg = 0.0
	diameter = 0.5
	frictionId = Strickler_75.0

[definition]
	id = 1050099
	type = circle
	thalweg = 0.0
	diameter = 0.5
	frictionId = Strickler_75.0

[definition]
	id = 1050114
	type = circle
	thalweg = 0.0
	diameter = 0.6
	frictionId = Strickler_75.0

[definition]
	id = 1050328
	type = circle
	thalweg = 0.0
	diameter = 0.7
	frictionId = Strickler_75.0

[definition]
	id = 1050127
	type = circle
	thalweg = 0.0
	diameter = 0.7
	frictionId = Strickler_75.0

[definition]
	id = 1050201
	type = circle
	thalweg = 0.0
	diameter = 0.5
	frictionId = Strickler_75.0

[definition]
	id = 1050264
	type = circle
	thalweg = 0.0
	diameter = 1.6
	frictionId = Strickler_30.0

[definition]
	id = 1050062
	type = circle
	thalweg = 0.0
	diameter = 0.5
	frictionId = Strickler_75.0

[definition]
	id = 1050279
	type = circle
	thalweg = 0.0
	diameter = 0.6
	frictionId = Strickler_75.0

[definition]
	id = 1050292
	type = circle
	thalweg = 0.0
	diameter = 0.5
	frictionId = Strickler_75.0

[definition]
	id = 1050241
	type = rectangle
	thalweg = 0.0
	height = 1.0
	width = 1.8
	closed = 1
	frictionId = Strickler_75.0

[definition]
	id = 1050265
	type = circle
	thalweg = 0.0
	diameter = 1.6
	frictionId = Strickler_30.0

[definition]
	id = 1050295
	type = circle
	thalweg = 0.0
	diameter = 0.4
	frictionId = Strickler_75.0

[definition]
	id = 1050151
	type = circle
	thalweg = 0.0
	diameter = 0.4
	frictionId = Strickler_75.0

[definition]
	id = 1050300
	type = circle
	thalweg = 0.0
	diameter = 0.7
	frictionId = Strickler_75.0

[definition]
	id = 1050304
	type = circle
	thalweg = 0.0
	diameter = 0.8
	frictionId = Strickler_75.0

[definition]
	id = 1050235
	type = circle
	thalweg = 0.0
	diameter = 0.8
	frictionId = Strickler_75.0

[definition]
	id = 1050242
	type = circle
	thalweg = 0.0
	diameter = 0.5
	frictionId = Strickler_75.0

[definition]
	id = 1050266
	type = rectangle
	thalweg = 0.0
	height = 1.9
	width = 3.5
	closed = 1
	frictionId = Strickler_30.0

[definition]
	id = 1050024
	type = circle
	thalweg = 0.0
	diameter = 1.0
	frictionId = Strickler_75.0

[definition]
	id = 1050055
	type = circle
	thalweg = 0.0
	diameter = 0.9
	frictionId = Strickler_75.0

[definition]
	id = 1050181
	type = circle
	thalweg = 0.0
	diameter = 0.5
	frictionId = Strickler_75.0

[definition]
	id = 1050229
	type = circle
	thalweg = 0.0
	diameter = 0.8
	frictionId = Strickler_75.0

[definition]
	id = 1050057
	type = circle
	thalweg = 0.0
	diameter = 0.5
	frictionId = Strickler_75.0

[definition]
	id = 1050215
	type = circle
	thalweg = 0.0
	diameter = 0.5
	frictionId = Strickler_75.0

[definition]
	id = 1050273
	type = circle
	thalweg = 0.0
	diameter = 0.5
	frictionId = Strickler_75.0

[definition]
	id = 1050066
	type = circle
	thalweg = 0.0
	diameter = 0.5
	frictionId = Strickler_75.0

[definition]
	id = 1050321
	type = circle
	thalweg = 0.0
	diameter = 0.5
	frictionId = Strickler_75.0

[definition]
	id = 1050054
	type = circle
	thalweg = 0.0
	diameter = 0.5
	frictionId = Strickler_75.0

[definition]
	id = 1050335
	type = circle
	thalweg = 0.0
	diameter = 1.0
	frictionId = Strickler_75.0

[definition]
	id = 1050330
	type = circle
	thalweg = 0.0
	diameter = 0.8
	frictionId = Strickler_75.0

[definition]
	id = 1050112
	type = circle
	thalweg = 0.0
	diameter = 0.6
	frictionId = Strickler_75.0

[definition]
	id = 1050259
	type = rectangle
	thalweg = 0.0
	height = 0.5
	width = 0.75
	closed = 1
	frictionId = Strickler_75.0

[definition]
	id = 1050103
	type = circle
	thalweg = 0.0
	diameter = 0.5
	frictionId = Strickler_75.0

[definition]
	id = 1050078
	type = circle
	thalweg = 0.0
	diameter = 1.0
	frictionId = Strickler_75.0

[definition]
	id = 1050035
	type = circle
	thalweg = 0.0
	diameter = 0.5
	frictionId = Strickler_75.0

[definition]
	id = 1050072
	type = circle
	thalweg = 0.0
	diameter = 0.8
	frictionId = Strickler_75.0

[definition]
	id = 1050074
	type = circle
	thalweg = 0.0
	diameter = 1.0
	frictionId = Strickler_75.0

[definition]
	id = 1050143
	type = circle
	thalweg = 0.0
	diameter = 0.8
	frictionId = Strickler_75.0

[definition]
	id = 1050175
	type = rectangle
	thalweg = 0.0
	height = 0.95
	width = 1.4
	closed = 1
	frictionId = Strickler_75.0

[definition]
	id = 1050025
	type = circle
	thalweg = 0.0
	diameter = 1.0
	frictionId = Strickler_75.0

[definition]
	id = 1050010
	type = circle
	thalweg = 0.0
	diameter = 0.5
	frictionId = Strickler_75.0

[definition]
	id = 1050162
	type = circle
	thalweg = 0.0
	diameter = 0.7
	frictionId = Strickler_75.0

[definition]
	id = 1050214
	type = circle
	thalweg = 0.0
	diameter = 1.0
	frictionId = Strickler_75.0

[definition]
	id = 1050164
	type = rectangle
	thalweg = 0.0
	height = 0.8
	width = 1.2
	closed = 1
	frictionId = Strickler_75.0

[definition]
	id = 1050171
	type = circle
	thalweg = 0.0
	diameter = 0.7
	frictionId = Strickler_75.0

[definition]
	id = 1050195
	type = circle
	thalweg = 0.0
	diameter = 0.8
	frictionId = Strickler_75.0

[definition]
	id = 1050198
	type = circle
	thalweg = 0.0
	diameter = 0.8
	frictionId = Strickler_75.0

[definition]
	id = 1050213
	type = circle
	thalweg = 0.0
	diameter = 1.0
	frictionId = Strickler_75.0

[definition]
	id = 1050217
	type = circle
	thalweg = 0.0
	diameter = 0.5
	frictionId = Strickler_75.0

[definition]
	id = 1050254
	type = circle
	thalweg = 0.0
	diameter = 0.5
	frictionId = Strickler_75.0

[definition]
	id = 1050281
	type = circle
	thalweg = 0.0
	diameter = 0.5
	frictionId = Strickler_75.0

[definition]
	id = 1050302
	type = circle
	thalweg = 0.0
	diameter = 0.7
	frictionId = Strickler_75.0

[definition]
	id = 1050303
	type = circle
	thalweg = 0.0
	diameter = 0.7
	frictionId = Strickler_75.0

[definition]
	id = 1050014
	type = circle
	thalweg = 0.0
	diameter = 0.5
	frictionId = Strickler_75.0

[definition]
	id = 1050058
	type = circle
	thalweg = 0.0
	diameter = 0.8
	frictionId = Strickler_75.0

[definition]
	id = 1050163
	type = circle
	thalweg = 0.0
	diameter = 0.7
	frictionId = Strickler_30.0

[definition]
	id = 1050365
	type = circle
	thalweg = 0.0
	diameter = 1.0
	frictionId = Strickler_75.0

[definition]
	id = 1050123
	type = circle
	thalweg = 0.0
	diameter = 0.6
	frictionId = Strickler_75.0

[definition]
	id = 1050036
	type = circle
	thalweg = 0.0
	diameter = 0.5
	frictionId = Strickler_75.0

[definition]
	id = 1050173
	type = circle
	thalweg = 0.0
	diameter = 1.0
	frictionId = Strickler_75.0

[definition]
	id = 1050185
	type = circle
	thalweg = 0.0
	diameter = 0.5
	frictionId = Strickler_75.0

[definition]
	id = 1050232
	type = circle
	thalweg = 0.0
	diameter = 0.8
	frictionId = Strickler_75.0

[definition]
	id = 1050246
	type = circle
	thalweg = 0.0
	diameter = 0.5
	frictionId = Strickler_75.0

[definition]
	id = 1050250
	type = rectangle
	thalweg = 0.0
	height = 1.0
	width = 1.8
	closed = 1
	frictionId = Strickler_75.0

[definition]
	id = 1050283
	type = circle
	thalweg = 0.0
	diameter = 0.5
	frictionId = Strickler_75.0

[definition]
	id = 1050309
	type = circle
	thalweg = 0.0
	diameter = 1.0
	frictionId = Strickler_75.0

[definition]
	id = 1050243
	type = rectangle
	thalweg = 0.0
	height = 1.0
	width = 1.8
	closed = 1
	frictionId = Strickler_75.0

[definition]
	id = 1050282
	type = circle
	thalweg = 0.0
	diameter = 0.7
	frictionId = Strickler_75.0

[definition]
	id = 1050168
	type = rectangle
	thalweg = 0.0
	height = 1.35
	width = 0.9
	closed = 1
	frictionId = Strickler_75.0

[definition]
	id = 1050174
	type = circle
	thalweg = 0.0
	diameter = 1.0
	frictionId = Strickler_75.0

[definition]
	id = 1050291
	type = circle
	thalweg = 0.0
	diameter = 1.0
	frictionId = Strickler_75.0

[definition]
	id = 1050377
	type = circle
	thalweg = 0.0
	diameter = 0.5
	frictionId = Strickler_75.0

[definition]
	id = 1050380
	type = circle
	thalweg = 0.0
	diameter = 0.5
	frictionId = Strickler_75.0

[definition]
	id = 1050382
	type = circle
	thalweg = 0.0
	diameter = 0.5
	frictionId = Strickler_75.0

[definition]
	id = 1050157
	type = circle
	thalweg = 0.0
	diameter = 0.5
	frictionId = Strickler_75.0

[definition]
	id = 1050286
	type = circle
	thalweg = 0.0
	diameter = 0.7
	frictionId = Strickler_75.0

[definition]
	id = 1050298
	type = circle
	thalweg = 0.0
	diameter = 0.7
	frictionId = Strickler_75.0

[definition]
	id = 1050306
	type = circle
	thalweg = 0.0
	diameter = 0.8
	frictionId = Strickler_75.0

[definition]
	id = 1050419
	type = circle
	thalweg = 0.0
	diameter = 0.7
	frictionId = Strickler_75.0

[definition]
	id = 1050366
	type = circle
	thalweg = 0.0
	diameter = 0.5
	frictionId = Strickler_75.0

[definition]
	id = 1050411
	type = rectangle
	thalweg = 0.0
	height = 1.2
	width = 1.5
	closed = 1
	frictionId = Strickler_75.0

[definition]
	id = 1050341
	type = circle
	thalweg = 0.0
	diameter = 0.5
	frictionId = Strickler_75.0

[definition]
	id = 1050343
	type = circle
	thalweg = 0.0
	diameter = 0.5
	frictionId = Strickler_75.0

[definition]
	id = 1050348
	type = circle
	thalweg = 0.0
	diameter = 1.0
	frictionId = Strickler_90.0

[definition]
	id = 1050389
	type = circle
	thalweg = 0.0
	diameter = 0.5
	frictionId = Strickler_75.0

[definition]
	id = 1050106
	type = circle
	thalweg = 0.0
	diameter = 0.5
	frictionId = Strickler_75.0

[definition]
	id = 1050145
	type = circle
	thalweg = 0.0
	diameter = 0.9
	frictionId = Strickler_75.0

[definition]
	id = 1050312
	type = rectangle
	thalweg = 0.0
	height = 1.25
	width = 1.5
	closed = 1
	frictionId = Strickler_75.0

[definition]
	id = 1050220
	type = circle
	thalweg = 0.0
	diameter = 1.0
	frictionId = Strickler_75.0

[definition]
	id = 1050288
	type = circle
	thalweg = 0.0
	diameter = 1.0
	frictionId = Strickler_75.0

[definition]
	id = 1050299
	type = circle
	thalweg = 0.0
	diameter = 0.7
	frictionId = Strickler_75.0

[definition]
	id = 1050006
	type = circle
	thalweg = 0.0
	diameter = 0.7
	frictionId = Strickler_75.0

[definition]
	id = 1050109
	type = circle
	thalweg = 0.0
	diameter = 0.5
	frictionId = Strickler_75.0

[definition]
	id = 1050236
	type = circle
	thalweg = 0.0
	diameter = 0.8
	frictionId = Strickler_75.0

[definition]
	id = 1050251
	type = circle
	thalweg = 0.0
	diameter = 1.2
	frictionId = Strickler_30.0

[definition]
	id = 1050165
	type = circle
	thalweg = 0.0
	diameter = 0.6
	frictionId = Strickler_75.0

[definition]
	id = 1050209
	type = circle
	thalweg = 0.0
	diameter = 0.8
	frictionId = Strickler_75.0

[definition]
	id = 1050226
	type = circle
	thalweg = 0.0
	diameter = 1.0
	frictionId = Strickler_75.0

[definition]
	id = 1050029
	type = circle
	thalweg = 0.0
	diameter = 0.5
	frictionId = Strickler_75.0

[definition]
	id = 1050338
	type = circle
	thalweg = 0.0
	diameter = 0.5
	frictionId = Strickler_75.0

[definition]
	id = 1050428
	type = circle
	thalweg = 0.0
	diameter = 0.3
	frictionId = Strickler_75.0

[definition]
	id = 1050425
	type = circle
	thalweg = 0.0
	diameter = 1.0
	frictionId = Strickler_75.0

[definition]
	id = 1050385
	type = circle
	thalweg = 0.0
	diameter = 0.5
	frictionId = Strickler_75.0

[definition]
	id = 1050384
	type = circle
	thalweg = 0.0
	diameter = 0.5
	frictionId = Strickler_75.0

[definition]
	id = 1050022
	type = circle
	thalweg = 0.0
	diameter = 0.5
	frictionId = Strickler_75.0

[definition]
	id = 1050113
	type = circle
	thalweg = 0.0
	diameter = 0.6
	frictionId = Strickler_75.0

[definition]
	id = 1050120
	type = circle
	thalweg = 0.0
	diameter = 0.5
	frictionId = Strickler_75.0

[definition]
	id = 1050101
	type = circle
	thalweg = 0.0
	diameter = 0.5
	frictionId = Strickler_75.0

[definition]
	id = 1050223
	type = circle
	thalweg = 0.0
	diameter = 1.0
	frictionId = Strickler_75.0

[definition]
	id = 1050261
	type = circle
	thalweg = 0.0
	diameter = 1.4
	frictionId = Strickler_30.0

[definition]
	id = 1050285
	type = circle
	thalweg = 0.0
	diameter = 0.7
	frictionId = Strickler_75.0

[definition]
	id = 1050357
	type = rectangle
	thalweg = 0.0
	height = 1.0
	width = 1.5
	closed = 1
	frictionId = Strickler_75.0

[definition]
	id = 1050358
	type = circle
	thalweg = 0.0
	diameter = 1.0
	frictionId = Strickler_75.0

[definition]
	id = 1050361
	type = circle
	thalweg = 0.0
	diameter = 0.6
	frictionId = Strickler_75.0

[definition]
	id = 1050397
	type = circle
	thalweg = 0.0
	diameter = 0.7
	frictionId = Strickler_75.0

[definition]
	id = 1050396
	type = circle
	thalweg = 0.0
	diameter = 0.5
	frictionId = Strickler_75.0

[definition]
	id = 1050202
	type = circle
	thalweg = 0.0
	diameter = 0.5
	frictionId = Strickler_75.0

[definition]
	id = 1050102
	type = circle
	thalweg = 0.0
	diameter = 0.5
	frictionId = Strickler_75.0

[definition]
	id = 1050379
	type = circle
	thalweg = 0.0
	diameter = 1.25
	frictionId = Strickler_30.0

[definition]
	id = 1050362
	type = circle
	thalweg = 0.0
	diameter = 0.5
	frictionId = Strickler_75.0

[definition]
	id = 1050423
	type = rectangle
	thalweg = 0.0
	height = 1.25
	width = 1.5
	closed = 1
	frictionId = Strickler_75.0

[definition]
	id = 1050142
	type = circle
	thalweg = 0.0
	diameter = 0.8
	frictionId = Strickler_75.0

[definition]
	id = 1050194
	type = circle
	thalweg = 0.0
	diameter = 0.5
	frictionId = Strickler_75.0

[definition]
	id = 1050222
	type = circle
	thalweg = 0.0
	diameter = 1.0
	frictionId = Strickler_75.0

[definition]
	id = 1050424
	type = rectangle
	thalweg = 0.0
	height = 1.85
	width = 2.0
	closed = 1
	frictionId = Strickler_75.0

[definition]
	id = 1050352
	type = circle
	thalweg = 0.0
	diameter = 0.3
	frictionId = Strickler_100.0

[definition]
	id = 1050416
	type = circle
	thalweg = 0.0
	diameter = 1.0
	frictionId = Strickler_75.0

[definition]
	id = 1050415
	type = circle
	thalweg = 0.0
	diameter = 0.8
	frictionId = Strickler_75.0

[definition]
	id = 1050417
	type = circle
	thalweg = 0.0
	diameter = 1.0
	frictionId = Strickler_75.0

[definition]
	id = 1050440
	type = circle
	thalweg = 0.0
	diameter = 0.5
	frictionId = Strickler_75.0

[definition]
	id = 1050439
	type = circle
	thalweg = 0.0
	diameter = 0.5
	frictionId = Strickler_75.0

[definition]
	id = 1050426
	type = circle
	thalweg = 0.0
	diameter = 0.5
	frictionId = Strickler_75.0

[definition]
	id = 1050340
	type = circle
	thalweg = 0.0
	diameter = 0.5
	frictionId = Strickler_75.0

[definition]
	id = 1050342
	type = circle
	thalweg = 0.0
	diameter = 0.5
	frictionId = Strickler_75.0

[definition]
	id = 1050438
	type = circle
	thalweg = 0.0
	diameter = 0.5
	frictionId = Strickler_75.0

[definition]
	id = 1050065
	type = circle
	thalweg = 0.0
	diameter = 0.5
	frictionId = Strickler_75.0

[definition]
	id = 1050166
	type = circle
	thalweg = 0.0
	diameter = 0.9
	frictionId = Strickler_75.0

[definition]
	id = 1050187
	type = circle
	thalweg = 0.0
	diameter = 0.8
	frictionId = Strickler_75.0

[definition]
	id = 1050337
	type = circle
	thalweg = 0.0
	diameter = 0.6
	frictionId = Strickler_75.0

[definition]
	id = 1050350
	type = circle
	thalweg = 0.0
	diameter = 0.5
	frictionId = Strickler_75.0

[definition]
	id = 1050347
	type = circle
	thalweg = 0.0
	diameter = 0.5
	frictionId = Strickler_75.0

[definition]
	id = 1050414
	type = circle
	thalweg = 0.0
	diameter = 0.6
	frictionId = Strickler_75.0

[definition]
	id = 1050430
	type = circle
	thalweg = 0.0
	diameter = 0.3
	frictionId = Strickler_75.0

[definition]
	id = 1050431
	type = circle
	thalweg = 0.0
	diameter = 0.5
	frictionId = Strickler_75.0

[definition]
	id = 1050203
	type = circle
	thalweg = 0.0
	diameter = 0.5
	frictionId = Strickler_75.0

[definition]
	id = 1050075
	type = circle
	thalweg = 0.0
	diameter = 1.0
	frictionId = Strickler_75.0

[definition]
	id = 1050076
	type = circle
	thalweg = 0.0
	diameter = 1.0
	frictionId = Strickler_75.0

[definition]
	id = 1050139
	type = rectangle
	thalweg = 0.0
	height = 1.0
	width = 1.5
	closed = 1
	frictionId = Strickler_75.0

[definition]
	id = 1050150
	type = circle
	thalweg = 0.0
	diameter = 1.0
	frictionId = Strickler_75.0

[definition]
	id = 1050237
	type = circle
	thalweg = 0.0
	diameter = 0.8
	frictionId = Strickler_75.0

[definition]
	id = 1050364
	type = circle
	thalweg = 0.0
	diameter = 0.5
	frictionId = Strickler_75.0

[definition]
	id = 1050305
	type = circle
	thalweg = 0.0
	diameter = 0.8
	frictionId = Strickler_75.0

[definition]
	id = 1050008
	type = circle
	thalweg = 0.0
	diameter = 0.5
	frictionId = Strickler_75.0

[definition]
	id = 1050098
	type = circle
	thalweg = 0.0
	diameter = 0.5
	frictionId = Strickler_75.0

[definition]
	id = 1050119
	type = circle
	thalweg = 0.0
	diameter = 0.5
	frictionId = Strickler_75.0

[definition]
	id = 1050197
	type = circle
	thalweg = 0.0
	diameter = 0.8
	frictionId = Strickler_75.0

[definition]
	id = 1050207
	type = circle
	thalweg = 0.0
	diameter = 0.8
	frictionId = Strickler_75.0

[definition]
	id = 1050284
	type = circle
	thalweg = 0.0
	diameter = 0.7
	frictionId = Strickler_75.0

[definition]
	id = 1050180
	type = circle
	thalweg = 0.0
	diameter = 1.25
	frictionId = Strickler_30.0

[definition]
	id = 1050418
	type = circle
	thalweg = 0.0
	diameter = 1.25
	frictionId = Strickler_75.0

[definition]
	id = 1050413
	type = circle
	thalweg = 0.0
	diameter = 0.6
	frictionId = Strickler_75.0

[definition]
	id = 1050339
	type = circle
	thalweg = 0.0
	diameter = 0.5
	frictionId = Strickler_75.0

[definition]
	id = 1050434
	type = circle
	thalweg = 0.0
	diameter = 0.6
	frictionId = Strickler_75.0

[definition]
	id = 1050433
	type = circle
	thalweg = 0.0
	diameter = 0.4
	frictionId = Strickler_75.0

[definition]
	id = 1050432
	type = circle
	thalweg = 0.0
	diameter = 0.5
	frictionId = Strickler_75.0

[definition]
	id = 1050429
	type = circle
	thalweg = 0.0
	diameter = 0.4
	frictionId = Strickler_75.0

[definition]
	id = 1050427
	type = circle
	thalweg = 0.0
	diameter = 0.4
	frictionId = Strickler_100.0

[definition]
	id = 1050351
	type = circle
	thalweg = 0.0
	diameter = 0.5
	frictionId = Strickler_75.0

[definition]
	id = 1050353
	type = circle
	thalweg = 0.0
	diameter = 1.0
	frictionId = Strickler_75.0

[definition]
	id = 1050370
	type = circle
	thalweg = 0.0
	diameter = 0.5
	frictionId = Strickler_75.0

[definition]
	id = 1050110
	type = circle
	thalweg = 0.0
	diameter = 0.6
	frictionId = Strickler_75.0

[definition]
	id = 1050128
	type = circle
	thalweg = 0.0
	diameter = 0.7
	frictionId = Strickler_75.0

[definition]
	id = 1050026
	type = circle
	thalweg = 0.0
	diameter = 0.3
	frictionId = Strickler_75.0

[definition]
	id = 1050124
	type = circle
	thalweg = 0.0
	diameter = 0.6
	frictionId = Strickler_75.0

[definition]
	id = 1050129
	type = circle
	thalweg = 0.0
	diameter = 0.7
	frictionId = Strickler_75.0

[definition]
	id = 1050287
	type = circle
	thalweg = 0.0
	diameter = 1.0
	frictionId = Strickler_75.0

[definition]
	id = 1050289
	type = circle
	thalweg = 0.0
	diameter = 1.0
	frictionId = Strickler_75.0

[definition]
	id = 1050276
	type = circle
	thalweg = 0.0
	diameter = 0.6
	frictionId = Strickler_75.0

[definition]
	id = 1050278
	type = circle
	thalweg = 0.0
	diameter = 0.6
	frictionId = Strickler_75.0

[definition]
	id = 1050301
	type = circle
	thalweg = 0.0
	diameter = 0.7
	frictionId = Strickler_75.0

[definition]
	id = 1050307
	type = circle
	thalweg = 0.0
	diameter = 0.8
	frictionId = Strickler_75.0

[definition]
	id = 1050406
	type = circle
	thalweg = 0.0
	diameter = 0.6
	frictionId = Strickler_75.0

[definition]
	id = 1050135
	type = circle
	thalweg = 0.0
	diameter = 0.5
	frictionId = Strickler_75.0

[definition]
	id = 1050013
	type = circle
	thalweg = 0.0
	diameter = 0.5
	frictionId = Strickler_75.0

[definition]
	id = 1050144
	type = circle
	thalweg = 0.0
	diameter = 0.8
	frictionId = Strickler_75.0

[definition]
	id = 1050359
	type = circle
	thalweg = 0.0
	diameter = 1.0
	frictionId = Strickler_75.0

[definition]
	id = 1050404
	type = circle
	thalweg = 0.0
	diameter = 0.7
	frictionId = Strickler_75.0

[definition]
	id = 1050087
	type = circle
	thalweg = 0.0
	diameter = 0.5
	frictionId = Strickler_75.0

[definition]
	id = 1050186
	type = circle
	thalweg = 0.0
	diameter = 0.5
	frictionId = Strickler_75.0

[definition]
	id = 1050218
	type = circle
	thalweg = 0.0
	diameter = 0.5
	frictionId = Strickler_75.0

[definition]
	id = 1050247
	type = circle
	thalweg = 0.0
	diameter = 0.5
	frictionId = Strickler_75.0

[definition]
	id = 1050244
	type = circle
	thalweg = 0.0
	diameter = 0.5
	frictionId = Strickler_75.0

[definition]
	id = 1050313
	type = rectangle
	thalweg = 0.0
	height = 1.25
	width = 1.5
	closed = 1
	frictionId = Strickler_75.0

[definition]
	id = 1050080
	type = circle
	thalweg = 0.0
	diameter = 0.5
	frictionId = Strickler_75.0

[definition]
	id = 1050107
	type = circle
	thalweg = 0.0
	diameter = 0.5
	frictionId = Strickler_75.0

[definition]
	id = 1050188
	type = circle
	thalweg = 0.0
	diameter = 0.4
	frictionId = Strickler_75.0

[definition]
	id = 1050196
	type = circle
	thalweg = 0.0
	diameter = 0.6
	frictionId = Strickler_75.0

[definition]
	id = 1050210
	type = circle
	thalweg = 0.0
	diameter = 0.8
	frictionId = Strickler_75.0

[definition]
	id = 1050041
	type = circle
	thalweg = 0.0
	diameter = 0.5
	frictionId = Strickler_75.0

[definition]
	id = 1050047
	type = circle
	thalweg = 0.0
	diameter = 0.5
	frictionId = Strickler_75.0

[definition]
	id = 1050053
	type = circle
	thalweg = 0.0
	diameter = 0.5
	frictionId = Strickler_75.0

[definition]
	id = 1050403
	type = circle
	thalweg = 0.0
	diameter = 0.6
	frictionId = Strickler_75.0

[definition]
	id = 1050400
	type = circle
	thalweg = 0.0
	diameter = 0.6
	frictionId = Strickler_75.0

[definition]
	id = 1050238
	type = circle
	thalweg = 0.0
	diameter = 1.0
	frictionId = Strickler_75.0

[definition]
	id = 1050007
	type = circle
	thalweg = 0.0
	diameter = 0.5
	frictionId = Strickler_75.0

[definition]
	id = 1050369
	type = circle
	thalweg = 0.0
	diameter = 0.6
	frictionId = Strickler_75.0

[definition]
	id = 1050028
	type = circle
	thalweg = 0.0
	diameter = 0.5
	frictionId = Strickler_75.0

[definition]
	id = 1050070
	type = circle
	thalweg = 0.0
	diameter = 0.5
	frictionId = Strickler_75.0

[definition]
	id = 1050046
	type = circle
	thalweg = 0.0
	diameter = 0.5
	frictionId = Strickler_75.0

[definition]
	id = 1050441
	type = circle
	thalweg = 0.0
	diameter = 0.7
	frictionId = Strickler_75.0

[definition]
	id = 1050189
	type = circle
	thalweg = 0.0
	diameter = 0.6
	frictionId = Strickler_75.0

[definition]
	id = 1050421
	type = circle
	thalweg = 0.0
	diameter = 0.8
	frictionId = Strickler_75.0

[definition]
	id = 1050368
	type = circle
	thalweg = 0.0
	diameter = 0.5
	frictionId = Strickler_75.0

[definition]
	id = 1050088
	type = circle
	thalweg = 0.0
	diameter = 0.6
	frictionId = Strickler_75.0

[definition]
	id = 1050130
	type = circle
	thalweg = 0.0
	diameter = 0.7
	frictionId = Strickler_75.0

[definition]
	id = 1050138
	type = circle
	thalweg = 0.0
	diameter = 0.8
	frictionId = Strickler_75.0

[definition]
	id = 1050149
	type = circle
	thalweg = 0.0
	diameter = 1.0
	frictionId = Strickler_75.0

[definition]
	id = 1050204
	type = circle
	thalweg = 0.0
	diameter = 0.5
	frictionId = Strickler_75.0

[definition]
	id = 1050234
	type = circle
	thalweg = 0.0
	diameter = 0.8
	frictionId = Strickler_75.0

[definition]
	id = 1050071
	type = circle
	thalweg = 0.0
	diameter = 0.8
	frictionId = Strickler_75.0

[definition]
	id = 1050117
	type = circle
	thalweg = 0.0
	diameter = 0.5
	frictionId = Strickler_75.0

[definition]
	id = 1050360
	type = circle
	thalweg = 0.0
	diameter = 0.4
	frictionId = Strickler_75.0

[definition]
	id = 1050091
	type = circle
	thalweg = 0.0
	diameter = 0.6
	frictionId = Strickler_75.0

[definition]
	id = 1050152
	type = circle
	thalweg = 0.0
	diameter = 0.4
	frictionId = Strickler_75.0

[definition]
	id = 1050345
	type = circle
	thalweg = 0.0
	diameter = 0.5
	frictionId = Strickler_75.0

[definition]
	id = 1050346
	type = circle
	thalweg = 0.0
	diameter = 0.5
	frictionId = Strickler_75.0

[definition]
	id = 1050031
	type = circle
	thalweg = 0.0
	diameter = 0.5
	frictionId = Strickler_100.0

[definition]
	id = 1050038
	type = circle
	thalweg = 0.0
	diameter = 0.5
	frictionId = Strickler_75.0

[definition]
	id = 1050042
	type = circle
	thalweg = 0.0
	diameter = 0.5
	frictionId = Strickler_75.0

[definition]
	id = 1050043
	type = circle
	thalweg = 0.0
	diameter = 0.5
	frictionId = Strickler_75.0

[definition]
	id = 1050344
	type = circle
	thalweg = 0.0
	diameter = 0.5
	frictionId = Strickler_75.0

[definition]
	id = 1050032
	type = circle
	thalweg = 0.0
	diameter = 0.5
	frictionId = Strickler_75.0

[definition]
	id = 1050030
	type = circle
	thalweg = 0.0
	diameter = 0.5
	frictionId = Strickler_75.0

[definition]
	id = 1050158
	type = circle
	thalweg = 0.0
	diameter = 0.5
	frictionId = Strickler_75.0

[definition]
	id = 1050216
	type = circle
	thalweg = 0.0
	diameter = 0.5
	frictionId = Strickler_75.0

[definition]
	id = 1050443
	type = circle
	thalweg = 0.0
	diameter = 0.7
	frictionId = Strickler_75.0

[definition]
	id = 1050137
	type = circle
	thalweg = 0.0
	diameter = 0.5
	frictionId = Strickler_75.0

[definition]
	id = 1050219
	type = circle
	thalweg = 0.0
	diameter = 0.5
	frictionId = Strickler_75.0

[definition]
	id = 1050274
	type = circle
	thalweg = 0.0
	diameter = 0.4
	frictionId = Strickler_75.0

[definition]
	id = 1050262
	type = circle
	thalweg = 0.0
	diameter = 1.4
	frictionId = Strickler_30.0

[definition]
	id = 1050122
	type = circle
	thalweg = 0.0
	diameter = 0.6
	frictionId = Strickler_75.0

[definition]
	id = 1050009
	type = circle
	thalweg = 0.0
	diameter = 0.5
	frictionId = Strickler_75.0

[definition]
	id = 1050004
	type = circle
	thalweg = 0.0
	diameter = 0.3
	frictionId = Strickler_100.0

[definition]
	id = 1050090
	type = circle
	thalweg = 0.0
	diameter = 0.6
	frictionId = Strickler_75.0

[definition]
	id = 1050191
	type = circle
	thalweg = 0.0
	diameter = 0.6
	frictionId = Strickler_75.0

[definition]
	id = 1050192
	type = circle
	thalweg = 0.0
	diameter = 0.5
	frictionId = Strickler_75.0

[definition]
	id = 1050193
	type = circle
	thalweg = 0.0
	diameter = 0.5
	frictionId = Strickler_75.0

[definition]
	id = 1050230
	type = circle
	thalweg = 0.0
	diameter = 0.7
	frictionId = Strickler_75.0

[definition]
	id = 1050231
	type = circle
	thalweg = 0.0
	diameter = 0.7
	frictionId = Strickler_75.0

[definition]
	id = 1050386
	type = circle
	thalweg = 0.0
	diameter = 0.5
	frictionId = Strickler_75.0

[definition]
	id = 1050354
	type = rectangle
	thalweg = 0.0
	height = 1.0
	width = 1.5
	closed = 1
	frictionId = Strickler_75.0

[definition]
	id = 1050355
	type = rectangle
	thalweg = 0.0
	height = 1.0
	width = 1.5
	closed = 1
	frictionId = Strickler_75.0

[definition]
	id = 1050356
	type = rectangle
	thalweg = 0.0
	height = 1.0
	width = 1.5
	closed = 1
	frictionId = Strickler_75.0

[definition]
	id = 1050208
	type = circle
	thalweg = 0.0
	diameter = 0.8
	frictionId = Strickler_75.0

[definition]
	id = 1050211
	type = circle
	thalweg = 0.0
	diameter = 0.8
	frictionId = Strickler_75.0

[definition]
	id = 1050224
	type = circle
	thalweg = 0.0
	diameter = 0.5
	frictionId = Strickler_75.0

[definition]
	id = 1050296
	type = circle
	thalweg = 0.0
	diameter = 0.7
	frictionId = Strickler_75.0

[definition]
	id = 1050308
	type = circle
	thalweg = 0.0
	diameter = 1.0
	frictionId = Strickler_75.0

[definition]
	id = 1050212
	type = circle
	thalweg = 0.0
	diameter = 1.0
	frictionId = Strickler_75.0

[definition]
	id = 1050448
	type = circle
	thalweg = 0.0
	diameter = 1.0
	frictionId = Strickler_75.0

[definition]
	id = 1050449
	type = circle
	thalweg = 0.0
	diameter = 0.38
	frictionId = Strickler_100.0

[definition]
	id = 1050450
	type = circle
	thalweg = 0.0
	diameter = 0.8
	frictionId = Strickler_75.0

[definition]
	id = 1050334
	type = circle
	thalweg = 0.0
	diameter = 0.7
	frictionId = Strickler_75.0

[definition]
	id = 1050045
	type = circle
	thalweg = 0.0
	diameter = 0.5
	frictionId = Strickler_75.0

[definition]
	id = 1050069
	type = circle
	thalweg = 0.0
	diameter = 0.5
	frictionId = Strickler_75.0

[definition]
	id = 1050037
	type = circle
	thalweg = 0.0
	diameter = 0.5
	frictionId = Strickler_75.0

[definition]
	id = 1050040
	type = circle
	thalweg = 0.0
	diameter = 0.5
	frictionId = Strickler_75.0

[definition]
	id = 1050039
	type = circle
	thalweg = 0.0
	diameter = 0.5
	frictionId = Strickler_75.0

[definition]
	id = 1050111
	type = circle
	thalweg = 0.0
	diameter = 0.6
	frictionId = Strickler_75.0

[definition]
	id = 1050134
	type = circle
	thalweg = 0.0
	diameter = 0.5
	frictionId = Strickler_75.0

[definition]
	id = 1050255
	type = circle
	thalweg = 0.0
	diameter = 0.4
	frictionId = Strickler_75.0

[definition]
	id = 1050393
	type = circle
	thalweg = 0.0
	diameter = 0.5
	frictionId = Strickler_75.0

[definition]
	id = 1050015
	type = circle
	thalweg = 0.0
	diameter = 0.48
	frictionId = Strickler_100.0

[definition]
	id = 1050253
	type = circle
	thalweg = 0.0
	diameter = 0.4
	frictionId = Strickler_75.0

[definition]
	id = 1050331
	type = circle
	thalweg = 0.0
	diameter = 0.5
	frictionId = Strickler_75.0

[definition]
	id = 1050394
	type = circle
	thalweg = 0.0
	diameter = 0.5
	frictionId = Strickler_75.0

[definition]
	id = 1050161
	type = circle
	thalweg = 0.0
	diameter = 0.4
	frictionId = Strickler_100.0

[definition]
	id = 1050179
	type = rectangle
	thalweg = 0.0
	height = 1.5
	width = 2.47
	closed = 1
	frictionId = Strickler_75.0

[definition]
	id = 1050182
	type = circle
	thalweg = 0.0
	diameter = 0.6
	frictionId = Strickler_75.0

[definition]
	id = 1050206
	type = circle
	thalweg = 0.0
	diameter = 0.7
	frictionId = Strickler_75.0

[definition]
	id = 1050228
	type = circle
	thalweg = 0.0
	diameter = 1.0
	frictionId = Strickler_75.0

[definition]
	id = 1050275
	type = circle
	thalweg = 0.0
	diameter = 0.5
	frictionId = Strickler_75.0

[definition]
	id = 1050277
	type = circle
	thalweg = 0.0
	diameter = 0.5
	frictionId = Strickler_75.0

[definition]
	id = 1050280
	type = circle
	thalweg = 0.0
	diameter = 0.5
	frictionId = Strickler_75.0

[definition]
	id = 1050322
	type = circle
	thalweg = 0.0
	diameter = 0.6
	frictionId = Strickler_75.0

[definition]
	id = 1050442
	type = circle
	thalweg = 0.0
	diameter = 0.6
	frictionId = Strickler_75.0

[definition]
	id = 1050445
	type = circle
	thalweg = 0.0
	diameter = 0.5
	frictionId = Strickler_75.0

[definition]
	id = 1050323
	type = circle
	thalweg = 0.0
	diameter = 1.25
	frictionId = Strickler_75.0

[definition]
	id = 1050392
	type = circle
	thalweg = 0.0
	diameter = 0.3
	frictionId = Strickler_75.0

[definition]
	id = 1050446
	type = circle
	thalweg = 0.0
	diameter = 0.5
	frictionId = Strickler_75.0

[definition]
	id = 1050447
	type = circle
	thalweg = 0.0
	diameter = 0.5
	frictionId = Strickler_75.0

[definition]
	id = 1050169
	type = rectangle
	thalweg = 0.0
	height = 1.0
	width = 2.0
	closed = 1
	frictionId = Strickler_75.0

[definition]
	id = 105002P0010
	type = yz
	thalweg = 7.949
	yzCount = 10
	yCoordinates =  0.000  6.442  7.126  7.621  7.948  8.370  9.201 10.650 12.599 14.736
	zCoordinates = 18.450 18.448 18.515 17.962 17.859 17.923 18.903 18.941 18.829 18.892
	sectionCount = 1
	frictionIds = Strickler_15.0
	frictionPositions =  0.000 14.736

[definition]
	id = 105002P0020
	type = yz
	thalweg = 8.139
	yzCount = 10
	yCoordinates =  0.000  7.191  7.682  8.140  8.426  9.272 10.119 11.983 13.520 14.483
	zCoordinates = 18.156 18.220 17.663 17.553 17.594 18.866 19.112 18.862 18.776 18.874
	sectionCount = 1
	frictionIds = Strickler_15.0
	frictionPositions =  0.000 14.483

[definition]
	id = 105002P0030
	type = yz
	thalweg = 9.524
	yzCount = 15
	yCoordinates =  0.000  5.012  7.514  8.349  8.766  9.185  9.609 10.016 10.591 11.355 12.378 12.825 15.056 17.269 18.956
	zCoordinates = 18.208 18.280 18.235 17.729 17.288 16.918 16.801 16.892 17.276 17.772 18.845 19.141 19.247 19.060 19.080
	sectionCount = 1
	frictionIds = Strickler_15.0
	frictionPositions =  0.000 18.956

[definition]
	id = 105002P0040
	type = yz
	thalweg = 8.728
	yzCount = 15
	yCoordinates =  0.000  3.917  6.736  7.515  8.200  8.584  8.975  9.277  9.777 10.780 11.337 12.254 14.216 15.271 17.002
	zCoordinates = 18.073 18.036 17.938 17.430 16.887 16.800 16.851 17.144 17.425 18.093 18.534 18.539 18.482 18.459 18.467
	sectionCount = 1
	frictionIds = Strickler_15.0
	frictionPositions =  0.000 17.002

[definition]
	id = 105002P0050
	type = yz
	thalweg = 8.456
	yzCount = 17
	yCoordinates =  0.000  4.112  6.924  7.236  7.407  7.851  8.204  8.593  8.938  9.143  9.435  9.853 11.052 13.155 14.704 15.010 16.436
	zCoordinates = 17.952 17.816 17.763 17.222 17.177 17.156 16.960 16.830 16.838 16.955 17.315 17.620 18.537 18.481 18.182 18.089 18.088
	sectionCount = 1
	frictionIds = Strickler_15.0
	frictionPositions =  0.000 16.436

[definition]
	id = 105002P0060
	type = yz
	thalweg = 7.412
	yzCount = 16
	yCoordinates =  0.000  3.874  5.864  6.504  6.871  7.134  7.597  7.965  8.342  8.767  9.818 10.214 10.927 11.238 13.588 16.754
	zCoordinates = 17.715 17.665 17.566 17.078 16.867 16.556 16.467 16.610 16.802 17.307 18.008 18.327 18.390 18.153 18.150 18.056
	sectionCount = 1
	frictionIds = Strickler_15.0
	frictionPositions =  0.000 16.754

[definition]
	id = 105002P0070
	type = yz
	thalweg = 6.923
	yzCount = 14
	yCoordinates =  0.000  2.933  5.021  5.617  5.750  6.075  6.674  7.182  7.376  8.295  9.008  9.517 10.064 14.144
	zCoordinates = 17.816 17.764 17.854 17.101 16.968 16.694 16.610 16.605 16.752 17.527 18.155 18.133 17.958 17.942
	sectionCount = 1
	frictionIds = Strickler_15.0
	frictionPositions =  0.000 14.144

[definition]
	id = 105002P0075
	type = yz
	thalweg = 7.287
	yzCount = 14
	yCoordinates =  0.000  3.493  5.748  5.997  6.592  6.833  7.200  7.437  7.616  8.396  9.007 10.256 12.394 17.388
	zCoordinates = 17.526 17.582 17.571 17.431 16.966 16.729 16.619 16.677 16.846 17.477 17.902 18.769 18.912 19.047
	sectionCount = 1
	frictionIds = Strickler_15.0
	frictionPositions =  0.000 17.388

[definition]
	id = 105002P0080
	type = yz
	thalweg = 7.179
	yzCount = 12
	yCoordinates =  0.000  4.018  6.050  6.385  6.789  7.121  7.406  7.844  8.027  8.289 10.968 13.834
	zCoordinates = 17.679 17.600 17.535 17.159 16.654 16.611 16.643 17.067 17.494 17.684 17.745 17.798
	sectionCount = 1
	frictionIds = Strickler_15.0
	frictionPositions =  0.000 13.834

[definition]
	id = 105002P0090
	type = yz
	thalweg = 7.027
	yzCount = 12
	yCoordinates =  0.000  4.232  5.732  6.349  6.799  7.046  7.327  7.589  7.770  8.296 10.394 14.473
	zCoordinates = 17.845 17.735 17.606 16.918 16.682 16.649 16.650 16.822 16.984 17.538 17.671 17.745
	sectionCount = 1
	frictionIds = Strickler_15.0
	frictionPositions =  0.000 14.473

[definition]
	id = 105002P0100
	type = yz
	thalweg = 7.548
	yzCount = 15
	yCoordinates =  0.000  5.083  6.263  6.551  6.954  7.264  7.492  7.779  8.188  8.485  8.836 10.988 12.607 14.000 15.649
	zCoordinates = 17.629 17.660 17.516 17.375 16.779 16.444 16.481 16.496 16.780 17.093 17.473 17.582 17.588 17.593 17.770
	sectionCount = 1
	frictionIds = Strickler_15.0
	frictionPositions =  0.000 15.649

[definition]
	id = 105002P0110
	type = yz
	thalweg = 7.447
	yzCount = 16
	yCoordinates =  0.000  3.255  5.126  6.213  6.671  7.146  7.419  7.642  8.051  8.383  8.795 10.045 11.611 12.926 13.547 14.492
	zCoordinates = 17.617 17.585 17.564 17.495 17.017 16.545 16.518 16.549 16.781 17.325 17.597 17.612 17.617 17.615 17.671 17.635
	sectionCount = 1
	frictionIds = Strickler_15.0
	frictionPositions =  0.000 14.492

[definition]
	id = 105002P0120
	type = yz
	thalweg = 7.803
	yzCount = 16
	yCoordinates =  0.000  5.749  6.815  7.086  7.427  7.722  7.931  8.124  8.527  8.895  9.315 10.588 12.176 13.407 13.976 14.791
	zCoordinates = 17.409 17.580 17.452 17.013 16.657 16.436 16.415 16.455 16.764 17.236 17.569 17.517 17.520 17.530 17.581 17.602
	sectionCount = 1
	frictionIds = Strickler_10.0
	frictionPositions =  0.000 14.791

[definition]
	id = 105003P0010
	type = yz
	thalweg = 5.671
	yzCount = 11
	yCoordinates =  0.000  2.499  3.404  3.944  4.893  5.414  5.581  5.771  6.436  7.305 12.358
	zCoordinates = 18.107 18.085 18.134 18.205 18.088 17.735 17.701 17.709 17.986 17.905 17.872
	sectionCount = 1
	frictionIds = Strickler_10.0
	frictionPositions =  0.000 12.358

[definition]
	id = 105003P0020
	type = yz
	thalweg = 6.0
	yzCount = 12
	yCoordinates =  0.000  2.249  3.900  4.356  5.297  5.662  5.868  6.030  6.363  6.624  7.204 12.599
	zCoordinates = 18.247 18.193 18.202 18.320 18.166 17.854 17.792 17.805 17.986 17.959 17.845 17.978
	sectionCount = 1
	frictionIds = Strickler_10.0
	frictionPositions =  0.000 12.599

[definition]
	id = 105003P0030
	type = yz
	thalweg = 7.657
	yzCount = 12
	yCoordinates =  0.000  3.851  5.490  6.575  6.948  7.334  7.659  7.969  8.494  8.929  9.242 11.373
	zCoordinates = 18.185 18.174 18.183 18.269 17.997 17.688 17.654 17.714 18.066 18.291 18.315 18.322
	sectionCount = 1
	frictionIds = Strickler_10.0
	frictionPositions =  0.000 11.373

[definition]
	id = 105003P0040
	type = yz
	thalweg = 8.1
	yzCount = 12
	yCoordinates =  0.000  3.692  5.803  7.232  7.562  7.754  7.982  8.220  8.581  9.025 10.948 14.977
	zCoordinates = 17.843 17.844 17.923 17.728 17.477 17.244 17.153 17.171 17.447 17.700 17.646 17.645
	sectionCount = 1
	frictionIds = Strickler_10.0
	frictionPositions =  0.000 14.977

[definition]
	id = 105003P0050
	type = yz
	thalweg = 6.75
	yzCount = 13
	yCoordinates =  0.000  2.978  5.905  6.224  6.526  6.718  6.751  7.051  7.311  7.536  7.864  8.757 15.026
	zCoordinates = 17.916 17.970 17.832 17.643 17.128 17.086 17.090 17.126 17.562 17.642 17.699 17.710 17.757
	sectionCount = 1
	frictionIds = Strickler_10.0
	frictionPositions =  0.000 15.026

[definition]
	id = 105003P0060
	type = yz
	thalweg = 6.823
	yzCount = 14
	yCoordinates =  0.000  3.797  5.400  5.862  6.357  6.580  6.832  6.911  7.072  7.396  7.843  8.139  8.864 14.843
	zCoordinates = 17.811 17.800 17.911 17.845 17.544 17.062 16.861 16.865 16.906 17.484 17.960 17.985 18.055 17.946
	sectionCount = 1
	frictionIds = Strickler_10.0
	frictionPositions =  0.000 14.843

[definition]
	id = 105003P0070
	type = yz
	thalweg = 7.644
	yzCount = 11
	yCoordinates =  0.000  3.682  6.466  6.986  7.360  7.643  7.861  8.182  8.549 11.348 14.616
	zCoordinates = 17.560 17.526 17.537 17.265 16.809 16.734 16.779 17.251 17.505 17.526 17.576
	sectionCount = 1
	frictionIds = Strickler_10.0
	frictionPositions =  0.000 14.616

[definition]
	id = 105003P0080
	type = yz
	thalweg = 7.809
	yzCount = 15
	yCoordinates =  0.000  3.267  5.900  6.494  6.805  7.197  7.415  7.791  8.117  8.363  8.749  9.160  9.442 11.276 15.468
	zCoordinates = 17.559 17.485 17.481 17.292 16.872 16.561 16.509 16.468 16.479 16.611 16.964 17.409 17.388 17.492 17.599
	sectionCount = 1
	frictionIds = Strickler_10.0
	frictionPositions =  0.000 15.468

[definition]
	id = 105003P0090
	type = yz
	thalweg = 7.238
	yzCount = 12
	yCoordinates =  0.000  3.234  5.771  6.295  6.940  7.237  7.687  8.113  8.534  8.833 11.724 15.334
	zCoordinates = 17.488 17.352 17.393 16.935 16.394 16.362 16.460 16.808 17.157 17.351 17.476 17.568
	sectionCount = 1
	frictionIds = Strickler_10.0
	frictionPositions =  0.000 15.334

[definition]
	id = 105003P0100
	type = yz
	thalweg = 7.401
	yzCount = 14
	yCoordinates =  0.000  2.880  5.243  5.990  6.473  6.798  7.146  7.377  7.542  8.088  8.673  9.055 10.692 15.155
	zCoordinates = 17.483 17.406 17.387 17.456 17.156 16.635 16.402 16.394 16.452 16.828 17.518 17.517 17.538 17.595
	sectionCount = 1
	frictionIds = Strickler_10.0
	frictionPositions =  0.000 15.155

[definition]
	id = 105003P0110
	type = yz
	thalweg = 9.348
	yzCount = 15
	yCoordinates =  0.000  0.403  3.085  5.596  7.580  8.333  8.778  8.972  9.233  9.465  9.810 10.198 10.858 14.291 17.769
	zCoordinates = 17.358 17.577 17.517 17.393 16.889 16.661 16.388 16.370 16.371 16.352 16.389 16.750 17.348 17.471 17.566
	sectionCount = 1
	frictionIds = Strickler_10.0
	frictionPositions =  0.000 17.769

[definition]
	id = 105003P0120
	type = yz
	thalweg = 14.834
	yzCount = 18
	yCoordinates =  0.000  1.051  2.066  3.121  3.695  4.448  5.706  7.357 10.270 12.144 13.813 14.393 14.720 14.996 15.513 16.011 18.587 22.736
	zCoordinates = 17.541 17.602 17.090 16.478 16.507 16.805 17.624 17.578 17.409 17.011 16.574 16.329 16.285 16.317 16.798 17.350 17.413 17.558
	sectionCount = 1
	frictionIds = Strickler_10.0
	frictionPositions =  0.000 22.736

[definition]
	id = 105003P0130
	type = yz
	thalweg = 8.6
	yzCount = 12
	yCoordinates =  0.000  4.722  6.739  7.801  8.372  8.581  8.784  9.085  9.854 10.620 12.532 16.941
	zCoordinates = 17.665 17.561 17.519 16.664 16.250 16.232 16.272 16.399 16.947 17.580 17.516 17.571
	sectionCount = 1
	frictionIds = Strickler_10.0
	frictionPositions =  0.000 16.941

[definition]
	id = 105003P0140
	type = yz
	thalweg = 8.39
	yzCount = 13
	yCoordinates =  0.000  4.558  6.925  7.392  7.784  8.014  8.343  8.575  9.050  9.586 10.177 11.800 16.373
	zCoordinates = 17.480 17.376 17.332 16.781 16.310 16.147 16.140 16.160 16.445 16.945 17.466 17.426 17.553
	sectionCount = 1
	frictionIds = Strickler_10.0
	frictionPositions =  0.000 16.373

[definition]
	id = 105003P0145
	type = yz
	thalweg = 10.199
	yzCount = 13
	yCoordinates =  0.000  4.530  7.860  8.799  9.375  9.822 10.223 10.840 11.571 12.133 12.623 14.266 19.775
	zCoordinates = 17.837 17.817 17.730 16.958 16.240 16.130 16.106 16.111 16.626 17.247 17.446 17.437 17.583
	sectionCount = 1
	frictionIds = Strickler_15.0
	frictionPositions =  0.000 19.775

[definition]
	id = 105003P0150
	type = yz
	thalweg = 8.415
	yzCount = 14
	yCoordinates =  0.000  3.471  6.367  7.027  7.696  7.975  8.414  8.984  9.293 10.259 10.845 11.494 13.725 16.771
	zCoordinates = 17.589 17.535 17.481 16.862 16.183 16.013 15.956 15.993 16.189 17.060 17.487 17.515 17.519 17.558
	sectionCount = 1
	frictionIds = Strickler_15.0
	frictionPositions =  0.000 16.771

[definition]
	id = 105003P0160
	type = yz
	thalweg = 8.392
	yzCount = 15
	yCoordinates =  0.000  4.487  6.199  6.954  7.815  8.155  8.583  9.158  9.520 10.026 10.776 11.110 13.159 15.281 17.027
	zCoordinates = 17.838 17.761 17.461 16.900 16.286 16.119 16.078 16.048 16.362 16.837 17.427 17.455 17.496 17.679 17.473
	sectionCount = 1
	frictionIds = Strickler_15.0
	frictionPositions =  0.000 17.027

[definition]
	id = 105003P0170
	type = yz
	thalweg = 8.15
	yzCount = 14
	yCoordinates =  0.000  1.619  4.912  6.304  6.834  7.250  7.825  8.149  8.559  9.098  9.522 10.042 13.476 16.619
	zCoordinates = 17.669 17.484 17.519 17.281 16.900 16.412 16.084 16.042 16.066 16.422 16.662 17.153 17.346 17.291
	sectionCount = 1
	frictionIds = Strickler_15.0
	frictionPositions =  0.000 16.619

[definition]
	id = 105003P0180
	type = yz
	thalweg = 7.399
	yzCount = 19
	yCoordinates =  0.000  1.525  4.330  5.510  6.073  6.281  6.840  7.190  7.575  7.998  8.417  9.809 10.389 12.490 13.713 14.325 15.150 16.666 22.280
	zCoordinates = 17.407 17.376 17.318 17.220 16.672 16.413 16.130 16.004 15.939 15.956 16.139 17.015 17.236 17.175 17.556 17.804 17.751 17.185 17.229
	sectionCount = 1
	frictionIds = Strickler_15.0
	frictionPositions =  0.000 22.280

[definition]
	id = 105003P0190
	type = yz
	thalweg = 7.89
	yzCount = 14
	yCoordinates =  0.000  3.576  6.322  6.694  7.045  7.640  7.890  8.410  8.815  9.069 10.363 10.978 13.465 16.849
	zCoordinates = 17.223 17.178 17.087 16.726 16.329 16.006 15.931 15.897 16.116 16.314 17.170 17.341 17.298 18.072
	sectionCount = 1
	frictionIds = Strickler_15.0
	frictionPositions =  0.000 16.849

[definition]
	id = 105003P0200
	type = yz
	thalweg = 7.354
	yzCount = 17
	yCoordinates =  0.000  4.330  5.499  5.804  6.013  6.707  7.317  7.686  8.402  9.332  9.990 11.452 13.553 14.557 15.586 16.657 23.327
	zCoordinates = 17.191 17.038 16.980 16.691 16.266 15.948 15.856 15.860 16.324 16.955 17.467 17.477 17.579 17.938 17.809 17.023 16.931
	sectionCount = 1
	frictionIds = Strickler_15.0
	frictionPositions =  0.000 23.327

[definition]
	id = 105003P0210
	type = yz
	thalweg = 8.484
	yzCount = 15
	yCoordinates =  0.000  3.524  6.337  6.753  6.994  7.754  8.484  9.369  9.800 10.250 11.328 12.912 14.023 15.776 16.640
	zCoordinates = 16.944 17.018 16.992 16.769 16.145 15.836 15.798 15.810 16.005 16.393 17.212 17.282 17.244 17.561 17.712
	sectionCount = 1
	frictionIds = Strickler_15.0
	frictionPositions =  0.000 16.640

[definition]
	id = 105003P0220
	type = yz
	thalweg = 8.399
	yzCount = 16
	yCoordinates =  0.000  3.702  6.178  6.559  7.262  8.272  9.265  9.755 10.587 11.420 12.601 14.248 15.685 16.580 18.196 22.749
	zCoordinates = 16.920 16.936 16.845 16.330 15.971 15.828 15.800 16.068 16.786 17.363 17.311 17.365 17.718 17.712 16.979 16.980
	sectionCount = 1
	frictionIds = Strickler_15.0
	frictionPositions =  0.000 22.749

[definition]
	id = 105003P0230
	type = yz
	thalweg = 8.321
	yzCount = 12
	yCoordinates =  0.000  3.077  5.425  6.292  6.946  7.527  8.308  9.306 10.473 12.799 13.352 15.382
	zCoordinates = 17.280 17.296 17.165 16.672 16.109 15.742 15.783 15.752 17.216 17.260 16.638 16.647
	sectionCount = 1
	frictionIds = Strickler_15.0
	frictionPositions =  0.000 15.382

[definition]
	id = 105003P0240
	type = yz
	thalweg = 9.07
	yzCount = 21
	yCoordinates =  0.000  4.215  5.805  6.545  6.964  7.873  8.086  8.440  8.938  9.703 10.325 10.996 11.538 12.821 14.392 16.221 17.450 18.299 19.100 19.982 20.743
	zCoordinates = 17.143 16.975 16.975 16.953 16.491 15.804 15.804 15.806 15.738 15.780 15.749 16.211 16.723 17.759 17.384 17.706 17.399 16.817 16.864 17.189 17.250
	sectionCount = 1
	frictionIds = Strickler_15.0
	frictionPositions =  0.000 20.743

[definition]
	id = 105003P0250
	type = yz
	thalweg = 9.191
	yzCount = 17
	yCoordinates =  0.000  3.710  6.509  7.100  7.500  7.907  8.314  9.186  9.752 10.485 10.841 12.477 13.983 15.171 15.972 18.039 18.903
	zCoordinates = 17.034 17.106 16.977 16.168 15.901 15.820 15.807 15.671 15.671 15.636 15.895 17.055 17.441 17.360 17.617 17.487 17.127
	sectionCount = 1
	frictionIds = Strickler_20.0
	frictionPositions =  0.000 18.903

[definition]
	id = 105003P0260
	type = yz
	thalweg = 9.265
	yzCount = 22
	yCoordinates =  0.000  4.499  6.538  6.921  7.165  7.867  8.448  9.278  9.870 10.525 10.844 11.191 11.767 13.003 14.922 15.980 18.205 18.791 20.004 24.306 24.737 27.432
	zCoordinates = 16.910 16.800 16.800 16.597 16.112 15.778 15.747 15.745 15.763 15.739 15.769 16.022 16.824 17.666 17.459 17.562 17.498 17.092 16.958 17.151 16.808 16.752
	sectionCount = 1
	frictionIds = Strickler_20.0
	frictionPositions =  0.000 27.432

[definition]
	id = 105003P0270
	type = yz
	thalweg = 9.051
	yzCount = 16
	yCoordinates =  0.000  3.438  6.433  6.896  7.080  7.386  8.032  9.062  9.610 10.019 10.513 10.770 11.438 12.040 14.352 17.376
	zCoordinates = 16.738 16.798 16.769 16.517 16.050 15.890 15.668 15.601 15.490 15.456 15.749 16.135 16.701 17.209 17.248 17.413
	sectionCount = 1
	frictionIds = Strickler_20.0
	frictionPositions =  0.000 17.376

[definition]
	id = 105003P0280
	type = yz
	thalweg = 14.919
	yzCount = 22
	yCoordinates =  0.000  5.501 10.081 11.548 12.429 12.672 13.268 13.796 14.398 15.061 16.019 16.467 16.830 16.989 17.216 17.994 18.762 18.995 21.096 23.111 24.300 26.651
	zCoordinates = 16.729 16.668 16.502 16.372 16.241 15.998 15.770 15.677 15.668 15.638 15.655 15.659 15.972 16.082 16.339 16.881 17.320 17.501 17.262 17.245 16.880 16.853
	sectionCount = 1
	frictionIds = Strickler_20.0
	frictionPositions =  0.000 26.651

[definition]
	id = 105003P0290
	type = yz
	thalweg = 9.376
	yzCount = 15
	yCoordinates =  0.000  3.931  7.331  7.682  8.399  8.842  9.376  9.907 10.741 11.081 12.062 13.396 15.857 19.175 20.670
	zCoordinates = 16.820 16.736 16.663 15.924 15.460 15.503 15.485 15.466 15.368 15.797 16.726 17.463 17.327 17.376 16.550
	sectionCount = 1
	frictionIds = Strickler_25.0
	frictionPositions =  0.000 20.670

[definition]
	id = 105003P0300
	type = yz
	thalweg = 16.316
	yzCount = 22
	yCoordinates =  0.000  0.705  4.461  7.941 11.048 13.729 14.285 15.165 15.785 16.554 17.125 17.630 17.843 18.002 18.589 19.417 20.006 20.448 21.515 22.524 25.275 28.818
	zCoordinates = 16.692 16.715 16.707 16.821 16.364 15.922 15.777 15.561 15.525 15.536 15.523 15.507 15.633 15.803 16.238 16.923 17.275 17.691 17.536 17.433 17.200 16.746
	sectionCount = 1
	frictionIds = Strickler_25.0
	frictionPositions =  0.000 28.818

[definition]
	id = 105003P0310
	type = yz
	thalweg = 9.122
	yzCount = 18
	yCoordinates =  0.000  3.558  6.892  7.309  7.559  7.759  8.002  8.493  9.098  9.829 10.523 10.796 11.698 13.021 14.073 17.530 19.140 21.465
	zCoordinates = 16.715 16.702 16.384 16.218 15.536 15.640 15.402 15.398 15.407 15.417 15.280 15.629 16.357 17.405 17.320 17.236 17.203 16.526
	sectionCount = 1
	frictionIds = Strickler_25.0
	frictionPositions =  0.000 21.465

[definition]
	id = 105003P0320
	type = yz
	thalweg = 15.694
	yzCount = 21
	yCoordinates =  0.000  5.194  7.706 10.011 12.276 14.035 14.481 14.612 15.002 15.668 15.959 16.512 16.901 17.249 17.436 18.118 19.305 21.645 23.558 25.084 27.136
	zCoordinates = 16.617 16.630 16.658 16.300 15.984 15.734 15.525 15.478 15.441 15.336 15.288 15.247 15.281 15.501 15.765 16.201 16.922 17.010 17.115 17.076 16.661
	sectionCount = 1
	frictionIds = Strickler_25.0
	frictionPositions =  0.000 27.136

[definition]
	id = 105003P0330
	type = yz
	thalweg = 10.047
	yzCount = 19
	yCoordinates =  0.000  4.224  8.035  8.316  8.541  8.688  8.849  9.388 10.042 10.779 11.549 11.866 12.069 13.383 14.803 17.399 17.775 21.289 22.482
	zCoordinates = 16.584 16.502 16.258 16.041 15.675 15.386 15.326 15.360 15.377 15.358 15.364 15.479 15.964 16.910 17.054 17.174 17.153 17.035 16.414
	sectionCount = 1
	frictionIds = Strickler_25.0
	frictionPositions =  0.000 22.482

[definition]
	id = 105003P0340
	type = yz
	thalweg = 10.623
	yzCount = 19
	yCoordinates =  0.000  4.267  7.648  8.497  8.856  9.019  9.175  9.504  9.984 10.624 11.326 11.732 11.951 12.257 12.898 13.896 15.275 17.559 20.137
	zCoordinates = 16.465 16.410 16.269 16.362 15.961 15.617 15.243 15.113 15.093 15.077 15.083 15.153 15.474 15.801 16.156 16.791 16.909 16.942 17.027
	sectionCount = 1
	frictionIds = Strickler_25.0
	frictionPositions =  0.000 20.137

[definition]
	id = 105003P0350
	type = yz
	thalweg = 9.616
	yzCount = 18
	yCoordinates =  0.000  3.360  6.431  6.961  7.275  7.464  8.180  8.841  9.600 10.376 10.994 11.376 11.787 11.982 12.522 13.948 15.377 16.409
	zCoordinates = 16.409 16.429 16.234 15.898 15.602 15.211 15.112 15.023 15.020 15.060 15.148 15.242 15.461 16.092 16.414 16.548 16.586 17.054
	sectionCount = 1
	frictionIds = Strickler_25.0
	frictionPositions =  0.000 16.409

[definition]
	id = 105003P0360
	type = yz
	thalweg = 11.356
	yzCount = 18
	yCoordinates =  0.000  4.668  8.183  8.726  8.993  9.834 10.497 10.827 11.306 12.004 12.562 13.028 13.381 13.607 13.729 14.548 17.238 19.443
	zCoordinates = 16.466 16.422 16.360 15.991 15.580 15.204 15.090 15.102 15.078 15.094 15.077 15.217 15.274 15.422 15.882 16.590 16.834 16.806
	sectionCount = 1
	frictionIds = Strickler_25.0
	frictionPositions =  0.000 19.443

[definition]
	id = 105003P0370
	type = yz
	thalweg = 11.414
	yzCount = 19
	yCoordinates =  0.000  4.169  7.072  8.009  8.532  8.925  9.364 10.113 10.697 11.406 12.292 12.818 13.318 13.714 14.102 14.787 16.864 19.126 21.712
	zCoordinates = 16.366 16.447 16.515 16.523 15.898 15.593 15.202 15.084 15.059 15.028 14.975 14.942 14.997 15.330 16.123 16.700 16.703 16.817 16.860
	sectionCount = 1
	frictionIds = Strickler_25.0
	frictionPositions =  0.000 21.712

[definition]
	id = 105003P0380
	type = yz
	thalweg = 11.218
	yzCount = 15
	yCoordinates =  0.000  3.428  6.937  8.633  8.914  9.056  9.831 10.506 11.217 11.938 12.752 13.184 14.044 16.931 18.984
	zCoordinates = 16.622 16.575 16.649 15.788 15.448 14.949 14.873 14.769 14.922 14.971 14.959 15.177 16.320 16.455 16.709
	sectionCount = 1
	frictionIds = Strickler_25.0
	frictionPositions =  0.000 18.984

[definition]
	id = 105003P0390
	type = yz
	thalweg = 9.4
	yzCount = 19
	yCoordinates =  0.000  1.904  5.140  6.108  6.884  7.082  7.350  7.889  8.542  9.409 10.096 11.101 11.372 11.686 12.125 12.655 13.991 16.001 18.355
	zCoordinates = 16.517 16.439 16.358 16.150 15.732 15.489 14.992 14.898 14.869 14.915 14.902 14.919 15.010 15.617 16.058 16.424 16.415 16.717 16.736
	sectionCount = 1
	frictionIds = Strickler_25.0
	frictionPositions =  0.000 18.355

[definition]
	id = 105003P0400
	type = yz
	thalweg = 7.687
	yzCount = 18
	yCoordinates =  0.000  1.123  4.218  4.865  5.412  5.657  5.806  6.251  6.828  7.666  8.665  9.350  9.614  9.808 10.873 12.054 13.707 15.899
	zCoordinates = 16.481 16.399 16.220 16.155 15.775 15.356 14.899 14.842 14.830 14.933 14.838 14.850 14.941 15.579 16.292 16.315 16.252 16.441
	sectionCount = 1
	frictionIds = Strickler_25.0
	frictionPositions =  0.000 15.899

[definition]
	id = 105003P0410
	type = yz
	thalweg = 9.286
	yzCount = 17
	yCoordinates =  0.000  2.223  6.173  6.632  7.013  7.195  7.495  8.468  9.281 10.330 10.859 11.308 11.700 12.327 14.661 15.674 18.308
	zCoordinates = 16.176 16.047 15.924 15.761 15.346 14.822 14.790 14.795 14.813 14.773 14.736 14.996 15.879 16.240 16.139 16.536 16.606
	sectionCount = 1
	frictionIds = Strickler_25.0
	frictionPositions =  0.000 18.308

[definition]
	id = 105003P0420
	type = yz
	thalweg = 8.963
	yzCount = 17
	yCoordinates =  0.000  2.875  5.837  6.415  6.830  7.103  7.361  8.057  8.963  9.804 10.616 11.021 11.471 12.192 13.882 15.373 17.242
	zCoordinates = 15.954 15.912 15.745 15.890 15.365 14.770 14.698 14.770 14.716 14.709 14.760 15.032 15.786 16.267 16.025 16.476 16.627
	sectionCount = 1
	frictionIds = Strickler_25.0
	frictionPositions =  0.000 17.242

[definition]
	id = 105003P0425
	type = yz
	thalweg = 16.941
	yzCount = 22
	yCoordinates =  0.000  3.615  7.503  8.985 10.829 11.575 12.985 14.495 15.178 15.911 16.790 17.685 18.590 18.839 19.057 19.357 19.640 20.657 22.109 23.726 26.994 29.019
	zCoordinates = 16.069 15.954 15.934 15.765 15.511 15.384 15.167 14.976 14.745 14.734 14.699 14.745 14.790 14.994 15.538 15.721 15.914 16.010 16.015 16.500 16.730 16.053
	sectionCount = 1
	frictionIds = Strickler_25.0
	frictionPositions =  0.000 29.019

[definition]
	id = 105003P0430
	type = yz
	thalweg = 10.164
	yzCount = 19
	yCoordinates =  0.000  2.922  6.246  7.024  7.352  7.946  8.062  8.793  9.748 10.164 11.030 11.781 12.302 12.645 13.261 14.798 16.075 18.913 21.445
	zCoordinates = 15.853 15.767 15.697 15.706 15.472 14.897 14.765 14.564 14.567 14.613 14.586 14.593 14.782 15.486 15.781 16.060 16.600 16.658 15.869
	sectionCount = 1
	frictionIds = Strickler_25.0
	frictionPositions =  0.000 21.445

[definition]
	id = 105003P0440
	type = yz
	thalweg = 17.051
	yzCount = 22
	yCoordinates =  0.000  6.391  8.680 10.723 11.430 12.936 13.833 14.371 14.785 14.944 15.773 16.664 17.323 18.345 18.959 19.399 19.585 20.173 22.494 23.420 25.718 27.280
	zCoordinates = 15.899 15.879 15.627 15.387 15.290 15.120 15.001 14.916 14.849 14.796 14.574 14.545 14.462 14.499 14.726 14.981 15.362 15.790 15.809 16.149 16.237 16.331
	sectionCount = 1
	frictionIds = Strickler_25.0
	frictionPositions =  0.000 27.280

[definition]
	id = 105003P0450
	type = yz
	thalweg = 18.042
	yzCount = 20
	yCoordinates =  0.000  2.458  7.235  9.669 11.191 12.420 13.768 15.036 15.887 16.035 16.427 17.212 18.085 18.909 19.802 20.413 20.665 21.181 24.542 28.228
	zCoordinates = 15.519 15.483 15.439 15.435 15.306 15.163 14.972 14.866 14.682 14.582 14.410 14.244 14.138 14.172 14.368 14.643 15.280 15.513 15.759 15.933
	sectionCount = 1
	frictionIds = Strickler_25.0
	frictionPositions =  0.000 28.228

[definition]
	id = 105003P0460
	type = yz
	thalweg = 9.93
	yzCount = 15
	yCoordinates =  0.000  3.546  6.801  7.701  8.013  8.457  8.961  9.927 10.800 11.462 11.776 12.502 15.980 16.696 18.227
	zCoordinates = 15.451 15.365 15.390 14.949 14.582 14.214 14.137 14.156 14.163 14.280 14.780 15.371 15.607 15.680 15.968
	sectionCount = 1
	frictionIds = Strickler_25.0
	frictionPositions =  0.000 18.227

[definition]
	id = 105003P0470
	type = yz
	thalweg = 11.643
	yzCount = 17
	yCoordinates =  0.000  3.661  6.608  7.139  8.637  9.234  9.976 10.787 11.632 12.543 13.221 13.869 14.654 15.285 16.613 19.858 22.475
	zCoordinates = 15.132 15.098 15.144 15.239 14.540 14.153 13.880 13.834 13.779 13.879 13.838 14.170 14.760 15.253 15.313 15.364 15.565
	sectionCount = 1
	frictionIds = Strickler_20.0
	frictionPositions =  0.000 22.475

[definition]
	id = 105003P0480
	type = yz
	thalweg = 11.219
	yzCount = 16
	yCoordinates =  0.000  3.313  6.381  6.613  7.592  8.581  9.474 10.178 11.215 12.241 13.235 14.545 15.150 16.415 20.061 21.193
	zCoordinates = 15.644 15.534 15.504 15.470 14.946 14.204 13.946 13.925 13.922 13.929 14.035 14.232 15.083 15.200 15.238 15.284
	sectionCount = 1
	frictionIds = Strickler_20.0
	frictionPositions =  0.000 21.193

[definition]
	id = 105003P0490
	type = yz
	thalweg = 27.096
	yzCount = 22
	yCoordinates =  0.000  5.800 10.979 16.556 20.196 21.093 22.808 24.088 24.455 25.419 26.384 27.212 27.670 28.167 28.824 29.773 31.379 34.750 38.743 40.962 44.614 49.937
	zCoordinates = 15.128 15.048 14.512 14.174 14.168 14.020 13.823 13.813 13.956 13.801 13.467 13.354 13.376 13.393 13.780 14.072 14.306 14.568 14.996 15.365 15.657 15.673
	sectionCount = 1
	frictionIds = Strickler_10.0
	frictionPositions =  0.000 49.937

[definition]
	id = 105003P0500
	type = yz
	thalweg = 26.83
	yzCount = 24
	yCoordinates =  0.000  5.540  9.213 13.964 18.962 22.025 22.814 23.704 25.278 25.746 26.233 26.868 27.723 28.040 28.346 28.741 29.354 30.345 30.785 34.065 38.550 42.782 46.728 52.113
	zCoordinates = 15.123 15.104 14.693 14.248 14.111 14.164 13.876 13.495 13.654 13.486 13.317 13.410 13.219 13.177 13.452 13.655 13.791 14.143 14.019 14.308 14.690 15.177 15.598 15.579
	sectionCount = 1
	frictionIds = Strickler_10.0
	frictionPositions =  0.000 52.113

[definition]
	id = 105003P0510
	type = yz
	thalweg = 28.168
	yzCount = 28
	yCoordinates =  0.000  6.547 10.924 14.624 20.222 24.363 24.608 25.084 25.381 25.936 26.137 26.462 26.883 27.281 28.062 28.593 29.184 29.633 30.024 30.436 31.410 32.797 33.734 36.312 41.271 46.751 50.220 53.861
	zCoordinates = 15.007 15.042 14.720 14.347 14.052 13.954 14.010 13.996 13.754 13.655 13.454 13.229 13.201 13.292 13.427 13.412 13.428 13.420 13.512 13.629 13.596 13.973 14.063 14.163 14.523 15.063 15.379 15.407
	sectionCount = 1
	frictionIds = Strickler_10.0
	frictionPositions =  0.000 53.861

[definition]
	id = 105003P0520
	type = yz
	thalweg = 28.401
	yzCount = 27
	yCoordinates =  0.000  6.083  7.964 11.502 15.529 19.508 22.505 23.246 23.802 24.676 26.120 27.185 28.414 28.471 29.240 29.998 30.529 31.315 31.989 33.458 36.746 40.974 45.229 46.679 48.874 48.936 54.513
	zCoordinates = 14.741 14.907 14.741 14.451 14.145 13.903 13.827 13.722 13.402 13.482 13.505 13.356 13.289 13.275 13.215 13.249 13.399 13.741 13.770 13.825 13.902 14.170 14.709 14.798 14.961 14.951 14.995
	sectionCount = 1
	frictionIds = Strickler_10.0
	frictionPositions =  0.000 54.513

[definition]
	id = 105003P0530
	type = yz
	thalweg = 27.262
	yzCount = 25
	yCoordinates =  0.000  4.644  8.199 13.048 17.928 21.333 21.975 22.265 22.492 23.932 24.920 25.830 26.689 27.530 28.452 29.336 29.945 30.519 31.646 34.351 39.784 42.469 45.307 47.446 53.221
	zCoordinates = 14.495 14.435 14.167 13.845 13.678 13.616 13.542 13.399 13.396 13.378 13.388 13.197 13.301 13.209 13.283 13.293 13.277 13.587 13.639 13.809 14.090 14.391 14.578 14.758 14.652
	sectionCount = 1
	frictionIds = Strickler_10.0
	frictionPositions =  0.000 53.221

[definition]
	id = 105003P0540
	type = yz
	thalweg = 24.627
	yzCount = 20
	yCoordinates =  0.000  5.681  9.868 11.514 15.147 19.155 21.366 22.416 23.280 24.280 25.095 25.872 26.762 27.194 27.890 30.424 34.626 37.653 40.993 47.952
	zCoordinates = 14.107 14.042 13.823 13.641 13.477 13.331 13.241 12.991 13.097 13.046 13.055 13.016 13.073 13.352 13.376 13.457 13.644 13.910 14.073 14.270
	sectionCount = 1
	frictionIds = Strickler_15.0
	frictionPositions =  0.000 47.952

[definition]
	id = 105003P0550
	type = yz
	thalweg = 9.477
	yzCount = 13
	yCoordinates =  0.000  6.340  7.234  8.101  8.627  9.475 10.538 11.263 11.832 12.628 13.532 14.260 20.465
	zCoordinates = 14.095 14.043 13.543 13.051 12.914 12.763 12.850 12.988 13.248 13.311 13.696 14.121 14.260
	sectionCount = 1
	frictionIds = Strickler_10.0
	frictionPositions =  0.000 20.465

[definition]
	id = 105003P0560
	type = yz
	thalweg = 9.106
	yzCount = 14
	yCoordinates =  0.000  5.130  6.169  7.047  7.810  8.879  9.293  9.481 10.480 11.891 12.950 13.629 16.249 19.859
	zCoordinates = 13.997 13.998 13.533 13.000 12.884 12.660 12.879 12.805 13.195 13.080 13.626 13.908 13.879 13.866
	sectionCount = 1
	frictionIds = Strickler_10.0
	frictionPositions =  0.000 19.859

[definition]
	id = 105003P0570
	type = yz
	thalweg = 12.307
	yzCount = 14
	yCoordinates =  0.000  7.384  8.581  9.725 10.492 11.223 12.310 13.211 13.487 14.245 15.163 15.741 16.664 21.800
	zCoordinates = 14.073 14.219 13.666 13.067 13.047 12.736 12.695 12.495 12.433 12.550 13.516 13.812 14.223 14.256
	sectionCount = 1
	frictionIds = Strickler_10.0
	frictionPositions =  0.000 21.800

[definition]
	id = 105003P0580
	type = yz
	thalweg = 11.165
	yzCount = 14
	yCoordinates =  0.000  6.854  8.092  8.841  9.647 10.223 11.188 12.171 12.956 13.453 14.449 15.509 16.229 22.745
	zCoordinates = 14.261 14.237 13.649 13.073 12.820 12.586 12.562 12.571 12.726 13.002 13.497 14.023 14.262 14.261
	sectionCount = 1
	frictionIds = Strickler_10.0
	frictionPositions =  0.000 22.745

[definition]
	id = 105003P0590
	type = yz
	thalweg = 11.288
	yzCount = 12
	yCoordinates =  0.000  6.266  7.072  8.313  9.619 10.368 11.315 12.104 12.753 13.798 14.832 20.677
	zCoordinates = 13.922 13.736 13.416 12.795 12.770 12.518 12.511 12.435 12.490 13.120 13.654 13.763
	sectionCount = 1
	frictionIds = Strickler_20.0
	frictionPositions =  0.000 20.677

[definition]
	id = 105004P0010
	type = yz
	thalweg = 7.718
	yzCount = 7
	yCoordinates =  0.000  6.442  7.223  7.718  8.196  9.254 14.804
	zCoordinates = 17.791 17.759 16.802 16.621 16.750 17.712 17.882
	sectionCount = 1
	frictionIds = Strickler_10.0
	frictionPositions =  0.000 14.804

[definition]
	id = 105004P0020
	type = yz
	thalweg = 6.648
	yzCount = 7
	yCoordinates =  0.000  5.730  6.157  6.648  6.894  7.793 13.578
	zCoordinates = 17.670 17.426 16.675 16.586 16.673 17.659 17.725
	sectionCount = 1
	frictionIds = Strickler_10.0
	frictionPositions =  0.000 13.578

[definition]
	id = 105004P0030
	type = yz
	thalweg = 6.47
	yzCount = 8
	yCoordinates =  0.000  5.510  6.026  6.472  6.839  7.940  9.775 12.929
	zCoordinates = 17.624 17.469 16.659 16.556 16.703 17.802 17.959 17.977
	sectionCount = 1
	frictionIds = Strickler_10.0
	frictionPositions =  0.000 12.929

[definition]
	id = 105004P0040
	type = yz
	thalweg = 7.96
	yzCount = 12
	yCoordinates =  0.000  6.624  7.476  7.961  8.366  8.717  9.875 10.475 11.135 13.438 14.364 17.460
	zCoordinates = 17.565 17.365 16.687 16.481 16.736 17.163 17.839 17.933 17.786 17.747 17.568 17.703
	sectionCount = 1
	frictionIds = Strickler_10.0
	frictionPositions =  0.000 17.460

[definition]
	id = 105004P0050
	type = yz
	thalweg = 7.157
	yzCount = 9
	yCoordinates =  0.000  5.716  6.791  7.152  7.696  8.951  9.705 12.449 15.225
	zCoordinates = 17.713 17.633 16.611 16.536 16.652 17.743 17.760 17.702 17.717
	sectionCount = 1
	frictionIds = Strickler_10.0
	frictionPositions =  0.000 15.225

[definition]
	id = 105004P0060
	type = yz
	thalweg = 7.309
	yzCount = 7
	yCoordinates =  0.000  5.308  6.774  7.311  7.967  9.163 14.944
	zCoordinates = 17.539 17.721 16.433 16.370 16.423 17.552 17.445
	sectionCount = 1
	frictionIds = Strickler_10.0
	frictionPositions =  0.000 14.944

[definition]
	id = 105004P0070
	type = yz
	thalweg = 7.642
	yzCount = 7
	yCoordinates =  0.000  5.954  7.086  7.641  8.095  9.602 15.524
	zCoordinates = 17.511 17.477 16.355 16.301 16.321 17.681 17.610
	sectionCount = 1
	frictionIds = Strickler_10.0
	frictionPositions =  0.000 15.524

[definition]
	id = 105004P0080
	type = yz
	thalweg = 7.622
	yzCount = 7
	yCoordinates =  0.000  5.874  7.180  7.623  8.252  9.413 15.469
	zCoordinates = 17.499 17.521 16.395 16.381 16.355 17.455 17.356
	sectionCount = 1
	frictionIds = Strickler_10.0
	frictionPositions =  0.000 15.469

[definition]
	id = 105004P0090
	type = yz
	thalweg = 8.23
	yzCount = 8
	yCoordinates =  0.000  6.491  7.743  8.224  8.795 10.206 11.693 17.397
	zCoordinates = 17.511 17.601 16.390 16.348 16.372 17.699 17.708 17.671
	sectionCount = 1
	frictionIds = Strickler_10.0
	frictionPositions =  0.000 17.397

[definition]
	id = 105005P0010
	type = yz
	thalweg = 9.682
	yzCount = 14
	yCoordinates =  0.000  3.776  7.800  8.554  8.758  9.063  9.295  9.673 10.202 10.520 11.189 12.042 14.802 18.122
	zCoordinates = 18.061 17.971 18.041 17.158 17.199 16.839 16.730 16.613 16.744 16.943 17.529 18.116 18.160 18.124
	sectionCount = 1
	frictionIds = Strickler_15.0
	frictionPositions =  0.000 18.122

[definition]
	id = 105005P0020
	type = yz
	thalweg = 7.952
	yzCount = 12
	yCoordinates =  0.000  6.077  6.878  7.233  7.397  7.947  8.292  8.459  9.083  9.754 10.897 15.514
	zCoordinates = 17.809 17.695 17.033 16.850 16.690 16.613 16.705 16.968 17.377 17.975 18.189 18.241
	sectionCount = 1
	frictionIds = Strickler_15.0
	frictionPositions =  0.000 15.514

[definition]
	id = 105005P0030
	type = yz
	thalweg = 7.224
	yzCount = 11
	yCoordinates =  0.000  5.438  6.021  6.520  6.815  7.229  7.540  7.705  8.108  8.650 14.642
	zCoordinates = 17.897 17.752 17.221 16.810 16.495 16.458 16.433 16.656 17.332 17.634 17.721
	sectionCount = 1
	frictionIds = Strickler_15.0
	frictionPositions =  0.000 14.642

[definition]
	id = 105006P0005
	type = yz
	thalweg = 8.42
	yzCount = 10
	yCoordinates =  0.000  4.442  6.616  7.384  7.781  8.189  8.429  9.050 10.875 14.776
	zCoordinates = 21.493 21.426 21.359 20.899 20.530 20.425 20.505 21.023 21.092 21.148
	sectionCount = 1
	frictionIds = Strickler_10.0
	frictionPositions =  0.000 14.776

[definition]
	id = 105006P0010
	type = yz
	thalweg = 8.362
	yzCount = 10
	yCoordinates =  0.000  4.047  6.330  7.597  8.080  8.366  8.725  9.543 10.481 16.701
	zCoordinates = 21.557 21.401 21.443 21.205 20.581 20.443 20.565 21.185 21.072 21.122
	sectionCount = 1
	frictionIds = Strickler_10.0
	frictionPositions =  0.000 16.701

[definition]
	id = 105006P0020
	type = yz
	thalweg = 7.223
	yzCount = 10
	yCoordinates =  0.000  3.362  5.713  6.331  6.995  7.356  7.610  8.127 10.212 14.174
	zCoordinates = 21.013 21.077 21.083 21.079 20.441 20.296 20.453 21.115 21.263 21.281
	sectionCount = 1
	frictionIds = Strickler_10.0
	frictionPositions =  0.000 14.174

[definition]
	id = 105006P0030
	type = yz
	thalweg = 6.666
	yzCount = 10
	yCoordinates =  0.000  3.248  6.131  6.568  6.730  6.941  7.286  7.741 10.933 14.468
	zCoordinates = 20.883 20.863 20.827 20.181 20.101 20.155 20.728 21.146 21.114 21.147
	sectionCount = 1
	frictionIds = Strickler_10.0
	frictionPositions =  0.000 14.468

[definition]
	id = 105006P0040
	type = yz
	thalweg = 8.136
	yzCount = 10
	yCoordinates =  0.000  4.206  6.967  7.623  7.966  8.176  8.391  9.010 10.934 14.183
	zCoordinates = 21.022 20.971 20.999 20.396 20.063 20.058 20.075 20.846 20.921 20.971
	sectionCount = 1
	frictionIds = Strickler_10.0
	frictionPositions =  0.000 14.183

[definition]
	id = 105006P0050
	type = yz
	thalweg = 7.563
	yzCount = 11
	yCoordinates =  0.000  2.916  6.011  6.763  7.363  7.567  7.803  8.537  9.923 12.021 14.058
	zCoordinates = 20.787 20.770 20.897 20.598 20.056 19.997 20.057 20.867 21.047 21.239 21.205
	sectionCount = 1
	frictionIds = Strickler_10.0
	frictionPositions =  0.000 14.058

[definition]
	id = 105006P0060
	type = yz
	thalweg = 7.092
	yzCount = 13
	yCoordinates =  0.000  2.569  5.666  6.293  6.852  7.087  7.301  7.873  8.402  9.562 11.115 12.483 14.282
	zCoordinates = 20.410 20.425 20.352 20.355 19.574 19.424 19.618 20.243 20.420 20.488 20.503 20.480 20.377
	sectionCount = 1
	frictionIds = Strickler_10.0
	frictionPositions =  0.000 14.282

[definition]
	id = 105006P0070
	type = yz
	thalweg = 7.202
	yzCount = 12
	yCoordinates =  0.000  3.660  5.550  6.381  7.064  7.329  7.681  8.015  8.884 10.299 12.425 15.435
	zCoordinates = 20.297 20.188 20.199 19.661 19.126 19.075 19.187 19.569 20.094 20.190 20.276 20.411
	sectionCount = 1
	frictionIds = Strickler_10.0
	frictionPositions =  0.000 15.435

[definition]
	id = 105006P0080
	type = yz
	thalweg = 8.191
	yzCount = 10
	yCoordinates =  0.000  4.292  7.328  7.900  8.132  8.461  9.132 11.022 12.772 15.495
	zCoordinates = 19.851 19.890 19.888 19.265 19.066 19.187 19.803 20.072 20.118 20.184
	sectionCount = 1
	frictionIds = Strickler_10.0
	frictionPositions =  0.000 15.495

[definition]
	id = 105006P0090
	type = yz
	thalweg = 5.99
	yzCount = 13
	yCoordinates =  0.000  1.520  2.606  3.776  4.991  5.326  5.821  5.984  6.172  6.852  7.314 10.347 13.711
	zCoordinates = 20.078 20.061 20.121 20.091 19.991 19.586 19.008 19.003 19.083 19.888 19.977 19.887 19.935
	sectionCount = 1
	frictionIds = Strickler_10.0
	frictionPositions =  0.000 13.711

[definition]
	id = 105006P0100
	type = yz
	thalweg = 6.636
	yzCount = 13
	yCoordinates =  0.000  1.424  2.902  4.494  5.447  5.963  6.412  6.566  6.748  7.190  7.788 11.028 15.192
	zCoordinates = 19.845 19.874 20.002 20.007 19.881 19.571 18.926 18.909 18.962 19.361 19.724 19.722 19.716
	sectionCount = 1
	frictionIds = Strickler_10.0
	frictionPositions =  0.000 15.192

[definition]
	id = 105006P0110
	type = yz
	thalweg = 6.873
	yzCount = 13
	yCoordinates =  0.000  1.315  2.645  4.078  5.349  5.970  6.431  6.735  6.924  7.466  8.426 11.761 17.826
	zCoordinates = 19.621 19.627 19.806 19.808 19.722 19.333 18.664 18.479 18.655 19.041 19.461 19.532 19.498
	sectionCount = 1
	frictionIds = Strickler_10.0
	frictionPositions =  0.000 17.826

[definition]
	id = 105006P0120
	type = yz
	thalweg = 5.166
	yzCount = 12
	yCoordinates =  0.000  1.406  2.844  4.081  4.687  4.862  5.001  5.163  5.601  6.054  8.858 11.984
	zCoordinates = 19.439 19.428 19.391 19.346 18.856 18.443 18.457 18.562 19.055 19.207 19.253 19.326
	sectionCount = 1
	frictionIds = Strickler_10.0
	frictionPositions =  0.000 11.984

[definition]
	id = 105006P0130
	type = yz
	thalweg = 7.042
	yzCount = 12
	yCoordinates =  0.000  1.458  6.020  6.427  6.698  7.021  7.302  7.797  8.215  8.770 11.070 13.494
	zCoordinates = 19.375 19.403 19.249 18.535 18.274 18.216 18.303 19.040 19.343 19.535 19.575 19.435
	sectionCount = 1
	frictionIds = Strickler_10.0
	frictionPositions =  0.000 13.494

[definition]
	id = 105006P0140
	type = yz
	thalweg = 6.604
	yzCount = 12
	yCoordinates =  0.000  4.328  4.890  5.797  6.076  6.364  6.603  6.775  6.992  7.703 10.645 14.623
	zCoordinates = 19.345 19.176 19.399 19.164 18.564 18.360 18.299 18.329 18.452 19.348 19.239 19.396
	sectionCount = 1
	frictionIds = Strickler_15.0
	frictionPositions =  0.000 14.623

[definition]
	id = 105006P0145
	type = yz
	thalweg = 5.475
	yzCount = 14
	yCoordinates =  0.000  2.619  4.020  4.522  4.932  5.039  5.337  5.605  5.714  5.823  6.223  7.141  7.890 10.539
	zCoordinates = 18.979 19.018 19.103 18.748 18.272 18.154 18.112 18.141 18.272 18.422 18.945 19.068 18.927 18.939
	sectionCount = 1
	frictionIds = Strickler_15.0
	frictionPositions =  0.000 10.539

[definition]
	id = 105006P0150
	type = yz
	thalweg = 7.056
	yzCount = 11
	yCoordinates =  0.000  3.615  5.900  6.311  6.683  7.016  7.340  7.587  7.911 10.476 13.086
	zCoordinates = 19.049 19.016 19.060 18.656 18.057 17.994 18.078 18.372 18.899 18.896 19.001
	sectionCount = 1
[...]
	sectionCount = 1
	frictionIds = Strickler_15.0
	frictionPositions =  0.000 23.439

[definition]
	id = 105043P0020
	type = yz
	thalweg = 14.532
	yzCount = 39
	yCoordinates =  0.000  3.569  5.233  6.717  7.510  8.184  8.889  9.647 10.679 11.507 12.468 13.349 14.193 15.121 15.932 16.710 17.670 18.542 19.467 20.286 21.166 22.195 23.209 23.967 24.877 25.912 26.582 27.537 28.400 29.177 30.052 30.939 31.724 32.168 32.596 32.836 34.396 38.163 43.114
	zCoordinates = 18.256 18.221 18.188 18.005 17.838 17.339 17.146 17.033 16.952 16.784 16.616 16.419 16.390 16.366 16.419 16.339 16.337 16.360 16.330 16.191 16.195 16.337 16.332 16.282 16.275 16.249 16.298 16.352 16.517 16.665 16.861 16.954 17.145 17.204 17.242 18.145 18.160 18.755 19.041
	sectionCount = 1
	frictionIds = Strickler_15.0
	frictionPositions =  0.000 43.114

[definition]
	id = 105043P0030
	type = yz
	thalweg = 12.439
	yzCount = 24
	yCoordinates =  0.000  2.267  3.842  5.270  6.295  7.198  7.879  8.645  9.381 10.104 10.917 11.743 12.421 13.442 14.052 14.800 15.410 16.017 16.655 17.276 18.226 19.233 20.980 27.407
	zCoordinates = 18.336 18.308 18.306 18.135 17.923 17.706 17.430 17.300 17.163 16.968 16.848 16.684 16.658 16.605 16.620 16.781 16.816 16.915 17.033 17.458 17.937 18.147 18.828 19.098
	sectionCount = 1
	frictionIds = Strickler_15.0
	frictionPositions =  0.000 27.407

[definition]
	id = 105043P0040
	type = yz
	thalweg = 10.602
	yzCount = 18
	yCoordinates =  0.000  1.718  3.151  5.197  6.426  7.618  8.074  8.933  9.667 10.583 11.298 11.973 12.536 13.131 13.682 14.985 16.637 23.363
	zCoordinates = 18.692 18.654 18.603 18.398 17.951 17.504 17.247 16.986 16.766 16.723 16.758 16.820 16.958 17.188 17.356 18.171 18.805 18.947
	sectionCount = 1
	frictionIds = Strickler_15.0
	frictionPositions =  0.000 23.363

[definition]
	id = 105043P0050
	type = yz
	thalweg = 10.609
	yzCount = 21
	yCoordinates =  0.000  0.695  2.533  4.018  5.603  7.189  7.577  8.243  8.808  9.346  9.981 10.609 11.083 11.834 12.485 13.260 13.674 14.680 16.220 19.444 22.880
	zCoordinates = 18.846 18.683 18.565 18.519 18.214 17.746 17.655 17.181 17.010 16.884 16.905 16.896 16.846 16.826 16.990 17.161 17.662 17.988 18.538 18.676 18.727
	sectionCount = 1
	frictionIds = Strickler_15.0
	frictionPositions =  0.000 22.880

[definition]
	id = 105043P0060
	type = yz
	thalweg = 13.401
	yzCount = 28
	yCoordinates =  0.000  0.576  1.598  2.682  4.120  5.322  7.053  8.153  8.573  9.387 10.147 11.013 11.893 12.839 13.393 13.738 14.582 15.324 16.096 16.881 17.682 18.407 19.081 20.605 22.744 26.017 27.497 27.921
	zCoordinates = 18.734 18.763 18.781 18.627 18.595 18.317 17.851 17.596 17.214 17.143 16.989 16.857 16.747 16.555 16.128 16.624 16.701 16.802 16.923 17.026 17.151 17.313 17.673 18.125 18.615 18.877 18.872 18.910
	sectionCount = 1
	frictionIds = Strickler_15.0
	frictionPositions =  0.000 27.921

[definition]
	id = 105043P0070
	type = yz
	thalweg = 18.281
	yzCount = 36
	yCoordinates =  0.000  4.490  6.018  6.992  8.718  9.898 10.265 10.974 11.673 12.898 13.707 14.454 15.370 16.285 16.762 17.843 18.806 19.772 20.817 21.409 21.990 22.987 23.907 24.713 25.643 26.530 27.389 28.191 28.872 29.511 29.843 31.306 33.487 36.353 37.955 38.716
	zCoordinates = 18.919 18.670 18.560 18.406 17.906 17.527 17.307 17.177 17.038 16.906 16.799 16.601 16.617 16.598 16.394 16.508 16.491 16.460 16.470 16.338 16.061 16.509 16.765 16.928 16.990 17.128 17.221 17.303 17.363 17.403 17.723 18.027 18.613 18.896 18.994 18.974
	sectionCount = 1
	frictionIds = Strickler_15.0
	frictionPositions =  0.000 38.716

[definition]
	id = 105043P0080
	type = yz
	thalweg = 11.966
	yzCount = 25
	yCoordinates =  0.000  2.713  4.237  5.808  6.896  7.742  8.164  8.769  9.504 10.299 11.019 11.968 12.897 13.450 14.149 14.824 15.439 15.929 16.447 16.884 17.798 18.855 20.167 20.823 24.383
	zCoordinates = 18.720 18.535 18.532 18.344 18.072 17.783 17.417 17.184 17.025 16.931 16.863 16.767 16.763 16.823 16.913 17.000 17.046 17.096 17.305 17.836 18.242 18.544 18.607 18.670 18.755
	sectionCount = 1
	frictionIds = Strickler_15.0
	frictionPositions =  0.000 24.383

[definition]
	id = 105043P0090
	type = yz
	thalweg = 15.263
	yzCount = 28
	yCoordinates =  0.000  0.753  1.731  4.634  7.448  8.280  8.665  9.300  9.957 10.814 11.937 12.614 13.657 14.284 15.273 16.163 16.938 17.697 18.362 19.021 19.885 20.336 21.090 21.741 22.824 24.603 26.438 31.949
	zCoordinates = 18.799 18.814 18.847 18.690 17.860 17.545 16.984 16.904 16.897 16.813 16.780 16.648 16.672 16.640 16.602 16.440 16.613 16.716 16.678 16.756 16.950 17.103 17.171 17.296 17.716 18.176 18.747 19.038
	sectionCount = 1
	frictionIds = Strickler_15.0
	frictionPositions =  0.000 31.949

[definition]
	id = 105043P0100
	type = yz
	thalweg = 25.203
	yzCount = 48
	yCoordinates =  0.000  1.414  6.258  7.975  8.991  9.464 10.053 10.570 10.994 11.367 12.375 13.375 14.331 15.301 16.351 17.133 18.021 19.097 20.124 21.062 21.926 22.720 23.777 24.423 25.345 26.317 27.150 27.815 28.697 29.985 30.646 31.559 32.420 33.087 33.899 34.663 35.367 36.439 37.297 38.116 39.105 39.924 40.847 41.507 41.718 43.560 45.981 51.266
	zCoordinates = 18.775 18.880 18.753 18.262 17.959 17.462 17.287 16.996 16.858 16.804 16.700 16.510 16.390 16.253 16.156 16.065 16.108 16.036 16.071 16.047 16.049 15.974 16.014 16.044 16.041 16.092 16.008 16.008 16.011 16.007 16.034 16.005 16.001 16.033 16.120 16.250 16.317 16.478 16.638 16.755 16.859 17.000 17.143 17.239 17.702 18.205 18.728 18.868
	sectionCount = 1
	frictionIds = Strickler_15.0
	frictionPositions =  0.000 51.266

[definition]
	id = 105043P0110
	type = yz
	thalweg = 15.499
	yzCount = 24
	yCoordinates =  0.000  3.317  4.391  7.900  9.874 11.125 11.760 12.725 13.394 14.072 14.932 15.513 16.334 17.105 17.936 18.646 19.288 19.902 20.303 21.378 22.935 24.868 26.673 28.643
	zCoordinates = 18.760 18.751 18.733 18.555 17.857 17.332 17.104 16.713 16.470 16.330 16.347 16.369 16.459 16.520 16.707 16.905 17.097 17.309 17.803 18.225 18.653 18.769 18.798 18.879
	sectionCount = 1
	frictionIds = Strickler_15.0
	frictionPositions =  0.000 28.643

[definition]
	id = 105043P0120
	type = yz
	thalweg = 18.275
	yzCount = 38
	yCoordinates =  0.000  1.935  6.747  8.498  9.027  9.762 10.336 11.049 11.639 12.385 13.264 14.285 14.785 15.531 16.069 16.713 17.527 18.321 18.954 20.056 20.991 21.893 22.680 23.006 23.814 24.484 25.197 26.090 27.032 27.394 28.174 30.204 32.133 32.628 34.601 36.058 36.734 37.684
	zCoordinates = 18.770 18.666 18.482 17.838 17.284 16.994 16.960 16.759 16.628 16.477 16.349 16.158 16.078 16.036 15.965 15.935 15.917 15.962 15.896 15.944 16.007 15.999 16.064 16.115 16.185 16.298 16.477 16.537 16.692 16.765 16.896 17.881 18.397 18.517 18.698 18.706 18.677 18.697
	sectionCount = 1
	frictionIds = Strickler_15.0
	frictionPositions =  0.000 37.684

[definition]
	id = 105043P0130
	type = yz
	thalweg = 14.499
	yzCount = 23
	yCoordinates =  0.000  3.560  5.104  6.844  8.389  9.698 10.398 10.674 11.156 11.960 12.919 13.823 14.496 15.385 16.190 17.029 17.752 18.629 19.055 19.435 20.432 24.288 31.734
	zCoordinates = 18.521 18.785 18.790 18.568 18.052 17.563 17.231 16.835 16.780 16.491 16.262 16.066 16.052 15.895 16.003 16.118 16.266 16.361 16.616 17.247 17.393 18.976 19.052
	sectionCount = 1
	frictionIds = Strickler_15.0
	frictionPositions =  0.000 31.734

[definition]
	id = 105043P0140
	type = yz
	thalweg = 22.479
	yzCount = 39
	yCoordinates =  0.000  5.784  6.537  6.993  7.625  8.157  8.918  9.720 10.759 11.588 12.844 13.816 14.922 15.971 16.971 17.909 18.568 19.495 20.057 20.803 21.611 22.240 23.146 24.197 24.882 25.660 26.311 27.103 27.699 28.718 29.488 30.461 31.174 31.821 32.063 33.147 34.576 35.151 41.607
	zCoordinates = 17.512 17.302 17.114 16.739 16.436 16.207 16.148 16.107 15.935 15.768 15.703 15.667 15.642 15.556 15.609 15.632 15.562 15.572 15.568 15.406 15.178 15.463 15.453 15.440 15.586 15.483 15.554 15.605 15.762 15.988 16.038 16.483 16.749 16.872 17.095 17.286 17.734 18.412 18.717
	sectionCount = 1
	frictionIds = Strickler_15.0
	frictionPositions =  0.000 41.607

[definition]
	id = 105043P0150
	type = yz
	thalweg = 11.247
	yzCount = 21
	yCoordinates =  0.000  3.037  4.600  5.964  6.640  7.012  7.562  8.250  9.156  9.786 10.556 11.257 12.294 13.039 13.876 14.328 14.762 15.266 16.544 18.196 21.675
	zCoordinates = 17.736 17.672 17.699 17.568 17.156 16.751 16.509 16.156 15.873 15.889 15.806 15.648 15.905 16.054 16.317 16.509 16.747 16.886 18.080 18.322 18.510
	sectionCount = 1
	frictionIds = Strickler_15.0
	frictionPositions =  0.000 21.675

[definition]
	id = 105043P0160
	type = yz
	thalweg = 18.237
	yzCount = 32
	yCoordinates =  0.000  2.879  4.471  5.708  7.227  8.002  8.892  9.733 10.562 11.282 12.028 12.833 13.716 14.731 15.880 17.076 18.271 19.596 20.739 21.543 22.635 23.459 24.408 25.106 26.178 26.933 27.543 28.059 28.790 32.853 35.855 43.015
	zCoordinates = 17.597 17.537 17.536 17.420 17.019 16.705 16.385 16.173 16.096 16.012 15.932 15.808 15.752 15.589 15.527 15.469 15.493 15.509 15.609 15.716 15.904 16.027 16.122 16.176 16.257 16.399 16.559 16.780 17.197 18.070 18.880 18.982
	sectionCount = 1
	frictionIds = Strickler_15.0
	frictionPositions =  0.000 43.015

[definition]
	id = 105043P0170
	type = yz
	thalweg = 16.194
	yzCount = 36
	yCoordinates =  0.000  1.588  2.672  4.228  5.738  6.769  7.262  8.332  8.869  9.703 10.590 11.730 12.671 13.430 14.295 15.152 16.190 17.383 18.279 19.126 19.743 20.275 20.918 21.506 22.227 22.859 23.484 24.194 25.035 25.780 26.752 27.310 27.417 28.596 31.242 37.230
	zCoordinates = 17.578 17.541 17.577 17.552 17.457 17.261 17.084 16.748 16.424 16.106 15.925 15.782 15.673 15.515 15.415 15.355 15.327 15.307 15.301 15.353 15.383 15.442 15.562 15.691 15.883 15.917 16.028 16.125 16.285 16.416 16.651 16.776 17.421 17.551 18.939 19.005
	sectionCount = 1
	frictionIds = Strickler_15.0
	frictionPositions =  0.000 37.230

[definition]
	id = 105043P0180
	type = yz
	thalweg = 81.011
	yzCount = 91
	yCoordinates =  0.000  3.252  5.448  6.336  7.031  7.835  8.504  9.218  9.876 10.539 11.259 11.906 12.495 13.235 14.140 15.070 16.146 17.150 18.185 19.094 20.368 21.461 21.559 22.413 23.461 24.672 25.882 26.831 27.743 28.739 29.639 30.696 31.631 32.511 33.504 34.358 35.231 36.420 37.485 38.699 39.914 41.085 42.314 43.626 44.961 45.821 47.124 48.234 49.530 50.940 51.992 53.158 54.316 55.434 56.454 57.683 58.873 60.186 61.302 62.733 63.958 65.041 66.222 67.535 68.769 70.015 71.176 72.506 73.692 74.719 75.662 76.763 77.598 78.886 79.837 80.978 81.932 83.113 84.382 85.543 86.808 87.465 88.174 89.218 89.926 90.642 91.044 91.903 93.875 96.566 103.735
	zCoordinates = 17.203 17.182 17.175 17.083 16.998 16.896 16.832 16.761 16.747 16.728 16.696 16.670 16.678 16.681 16.644 16.611 16.622 16.592 16.601 16.568 16.613 16.606 16.630 16.609 16.590 16.577 16.573 16.564 16.536 16.542 16.531 16.530 16.524 16.498 16.471 16.367 16.232 16.011 15.752 15.531 15.528 15.560 15.526 15.541 15.593 15.577 15.542 15.577 15.548 15.588 15.606 15.591 15.548 15.523 15.594 15.610 15.565 15.502 15.498 15.497 15.492 15.443 15.496 15.586 15.545 15.669 15.704 15.650 15.634 15.781 15.657 15.613 15.660 15.619 15.572 15.535 15.505 15.382 15.399 15.562 15.738 15.993 16.076 16.161 16.484 16.617 16.932 17.137 17.733 18.649 18.785
	sectionCount = 1
	frictionIds = Strickler_15.0
	frictionPositions =  0.000 103.735

[definition]
	id = 105043P0190
	type = yz
	thalweg = 84.659
	yzCount = 93
	yCoordinates =  0.000  3.126  5.892  6.766  7.637  8.632  9.317 10.117 11.028 11.974 12.729 13.590 14.313 15.161 16.181 16.945 17.774 18.519 19.287 20.161 21.178 22.127 22.863 23.785 24.557 25.457 26.219 27.020 28.085 29.062 29.935 31.369 32.830 33.774 34.472 35.364 36.303 37.034 37.910 38.687 39.962 43.064 46.996 50.916 54.591 59.508 63.450 67.461 68.627 70.391 70.890 72.214 72.949 73.792 74.415 75.378 76.132 76.926 77.595 78.404 79.226 80.461 81.355 82.237 82.964 83.744 84.895 85.815 86.789 87.659 88.311 88.993 89.811 90.649 91.216 91.946 92.808 93.632 94.503 95.529 95.899 96.735 97.519 98.329 98.854 99.416 100.253 101.114 102.493 103.701 104.684 107.217 110.167
	zCoordinates = 17.323 17.337 17.310 17.176 16.972 16.836 16.752 16.741 16.708 16.666 16.635 16.639 16.632 16.601 16.588 16.566 16.553 16.560 16.546 16.555 16.562 16.572 16.574 16.585 16.573 16.550 16.536 16.530 16.496 16.392 16.148 15.818 15.537 15.621 15.711 15.996 16.238 16.616 16.720 17.246 17.386 17.417 17.532 17.516 17.526 17.627 17.601 17.573 17.229 16.702 16.536 16.207 15.965 15.876 15.742 15.503 15.302 15.144 14.876 14.738 14.675 14.669 14.608 14.634 14.693 14.615 14.613 14.672 14.596 14.504 14.536 14.561 14.573 14.521 14.580 14.635 14.551 14.549 14.617 14.675 14.828 14.970 15.106 15.482 15.880 16.406 16.468 16.958 17.193 17.374 18.311 18.677 19.031
	sectionCount = 1
	frictionIds = Strickler_15.0
	frictionPositions =  0.000 110.167

[definition]
	id = 105043P0200
	type = yz
	thalweg = 83.388
	yzCount = 118
	yCoordinates =  0.000  4.133  6.684  8.963  9.618 10.270 10.880 11.748 12.482 13.595 14.421 15.334 16.128 16.979 17.778 18.563 19.337 20.348 21.257 22.120 23.034 23.888 24.611 25.762 26.523 27.439 28.387 29.441 30.279 31.546 32.881 34.010 34.931 35.447 36.419 37.408 38.297 39.102 39.915 41.137 41.853 42.941 43.689 44.364 45.403 46.276 47.115 47.895 48.917 49.867 50.957 51.808 52.937 53.466 54.456 55.342 56.437 57.270 58.101 59.060 59.486 60.237 60.949 61.554 62.119 63.045 63.823 64.634 65.395 66.078 66.884 67.655 68.575 69.293 70.356 71.642 72.534 73.533 74.373 74.975 75.717 76.440 77.442 78.282 79.177 79.884 80.462 81.226 81.987 83.400 84.375 85.265 86.133 86.947 87.929 88.748 89.534 90.339 91.215 92.159 93.383 94.405 95.159 96.138 97.190 97.860 98.388 98.920 99.819 100.572 101.123 101.676 102.205 103.155 104.095 107.406 109.753 112.164
	zCoordinates = 17.241 17.273 17.272 17.024 16.780 16.632 16.546 16.420 16.212 15.946 15.811 15.678 15.605 15.579 15.606 15.537 15.512 15.496 15.512 15.521 15.522 15.528 15.574 15.514 15.458 15.544 15.497 15.483 15.534 15.505 15.463 15.514 15.499 15.531 15.563 15.742 15.966 16.150 16.177 16.257 16.389 16.323 16.311 16.188 16.148 15.986 15.827 15.689 15.650 15.546 15.463 15.537 15.506 15.590 15.670 15.727 15.754 15.797 15.817 15.835 15.912 15.947 15.986 16.003 16.061 16.043 15.970 16.074 16.054 16.050 16.070 16.082 16.052 16.007 16.091 16.051 15.941 15.806 15.807 15.682 15.592 15.389 15.203 15.035 14.943 14.847 14.779 14.811 14.744 14.784 14.751 14.772 14.762 14.788 14.746 14.707 14.715 14.740 14.714 14.769 14.834 14.865 14.948 15.016 15.192 15.353 15.496 15.680 15.774 16.242 16.380 16.604 16.776 17.167 17.344 18.394 18.670 19.036
	sectionCount = 1
	frictionIds = Strickler_15.0
	frictionPositions =  0.000 112.164

[definition]
	id = 105043P0210
	type = yz
	thalweg = 11.168
	yzCount = 24
	yCoordinates =  0.000  1.025  2.619  4.069  5.280  6.839  7.759  8.320  8.821  9.460 10.162 11.164 11.837 12.674 13.479 14.227 15.119 15.572 15.931 16.083 17.141 17.510 21.769 28.485
	zCoordinates = 17.470 17.536 17.543 17.524 17.427 17.127 16.905 16.430 16.232 16.153 16.035 15.928 15.898 16.055 16.200 16.260 16.316 16.561 16.627 17.274 17.349 17.602 18.882 18.985
	sectionCount = 1
	frictionIds = Strickler_15.0
	frictionPositions =  0.000 28.485

[definition]
	id = 105043P0220
	type = yz
	thalweg = 11.96
	yzCount = 22
	yCoordinates =  0.000  3.574  5.153  6.547  7.439  8.417  9.054  9.534  9.847 10.452 11.167 12.042 12.864 13.812 14.816 15.616 16.146 16.243 17.026 18.668 20.594 26.426
	zCoordinates = 17.374 17.378 17.297 17.277 17.197 17.020 16.610 16.217 16.016 15.839 15.789 15.998 16.164 16.232 16.382 16.529 16.656 17.423 17.407 18.063 18.688 18.717
	sectionCount = 1
	frictionIds = Strickler_15.0
	frictionPositions =  0.000 26.426

[definition]
	id = 105043P0230
	type = yz
	thalweg = 28.601
	yzCount = 50
	yCoordinates =  0.000  4.183  5.768  7.663  8.586  9.218 10.089 10.937 11.686 12.872 13.886 14.583 15.684 16.877 16.939 18.032 18.656 19.505 20.619 21.774 23.033 24.033 25.107 26.516 27.617 28.567 29.401 30.208 31.231 32.260 33.650 34.933 35.922 36.799 37.821 38.710 39.402 39.471 40.219 40.823 41.569 42.225 42.944 43.380 43.886 44.561 45.249 47.443 49.587 54.883
	zCoordinates = 17.333 17.345 17.328 17.243 17.064 16.539 16.200 16.155 16.055 15.987 15.940 15.842 15.589 15.602 15.638 15.570 15.527 15.534 15.493 15.453 15.476 15.418 15.473 15.433 15.459 15.473 15.474 15.530 15.496 15.506 15.578 15.577 15.736 15.862 15.954 16.050 16.142 16.147 16.167 16.182 16.195 16.284 16.552 16.659 16.969 17.437 17.609 18.134 18.535 18.733
	sectionCount = 1
	frictionIds = Strickler_15.0
	frictionPositions =  0.000 54.883

[definition]
	id = 105043P0240
	type = yz
	thalweg = 7.201
	yzCount = 11
	yCoordinates =  0.000  5.904  6.354  6.762  7.201  7.668  8.378  9.673 11.642 12.823 14.145
	zCoordinates = 17.478 17.368 17.352 16.599 16.556 16.726 17.599 17.779 17.796 17.878 17.960
	sectionCount = 1
	frictionIds = Strickler_15.0
	frictionPositions =  0.000 14.145

[definition]
	id = 105043P0250
	type = yz
	thalweg = 8.079
	yzCount = 10
	yCoordinates =  0.000  6.841  7.122  7.278  7.624  8.090  8.224  8.977 10.942 14.730
	zCoordinates = 17.690 17.388 17.381 17.067 16.638 16.607 16.629 17.341 17.590 17.523
	sectionCount = 1
	frictionIds = Strickler_15.0
	frictionPositions =  0.000 14.730

[definition]
	id = 10506
	type = yz
	thalweg = 0.0
	yzCount = 4
	yCoordinates =  0.000  0.010  4.340  4.350
	zCoordinates = 17.210 15.710 15.710 17.210
	sectionCount = 1
	frictionIds = Strickler_75.0
	frictionPositions =  0.000  4.350

[definition]
	id = 10501
	type = yz
	thalweg = 0.0
	yzCount = 4
	yCoordinates =  0.000  0.010  5.300  5.310
	zCoordinates = 12.800 11.420 11.420 12.800
	sectionCount = 1
	frictionIds = Strickler_75.0
	frictionPositions =  0.000  5.310

[definition]
	id = 10502
	type = yz
	thalweg = 0.0
	yzCount = 4
	yCoordinates =  0.000  0.010  4.200  4.210
	zCoordinates = 11.920 10.700 10.700 11.920
	sectionCount = 1
	frictionIds = Strickler_75.0
	frictionPositions =  0.000  4.210

[definition]
	id = 10503
	type = yz
	thalweg = 0.0
	yzCount = 4
	yCoordinates =  0.000  0.010  2.900  2.910
	zCoordinates = 11.440 10.320 10.320 11.440
	sectionCount = 1
	frictionIds = Strickler_75.0
	frictionPositions =  0.000  2.910

[definition]
	id = 10509
	type = yz
	thalweg = 0.0
	yzCount = 4
	yCoordinates =  0.000  0.010 10.400 10.410
	zCoordinates = 18.410 16.900 16.900 18.410
	sectionCount = 1
	frictionIds = Strickler_75.0
	frictionPositions =  0.000 10.410

[definition]
	id = 10513
	type = yz
	thalweg = 0.0
	yzCount = 4
	yCoordinates =  0.000  0.010  3.150  3.160
	zCoordinates = 18.850 17.810 17.810 18.850
	sectionCount = 1
	frictionIds = Strickler_75.0
	frictionPositions =  0.000  3.160

[definition]
	id = 10512
	type = yz
	thalweg = 0.0
	yzCount = 4
	yCoordinates =  0.000  0.010  6.180  6.190
	zCoordinates =  8.620  7.510  7.510  8.620
	sectionCount = 1
	frictionIds = Strickler_75.0
	frictionPositions =  0.000  6.190

[definition]
	id = 10504
	type = yz
	thalweg = 0.0
	yzCount = 4
	yCoordinates =  0.000  0.010 13.400 13.410
	zCoordinates =  8.950  6.360  6.360  8.950
	sectionCount = 1
	frictionIds = Strickler_75.0
	frictionPositions =  0.000 13.410

[definition]
	id = 10515
	type = yz
	thalweg = 0.0
	yzCount = 4
	yCoordinates =  0.000  0.010  5.580  5.590
	zCoordinates = 11.690 10.780 10.780 11.690
	sectionCount = 1
	frictionIds = Strickler_75.0
	frictionPositions =  0.000  5.590

[definition]
	id = 10514
	type = yz
	thalweg = 0.0
	yzCount = 4
	yCoordinates =  0.000  0.010  5.210  5.220
	zCoordinates = 16.740 15.440 15.440 16.740
	sectionCount = 1
	frictionIds = Strickler_75.0
	frictionPositions =  0.000  5.220

[definition]
	id = 10510
	type = yz
	thalweg = 0.0
	yzCount = 4
	yCoordinates =  0.000  0.010  8.100  8.110
	zCoordinates = 17.640 16.010 16.010 17.640
	sectionCount = 1
	frictionIds = Strickler_75.0
	frictionPositions =  0.000  8.110

