# Generated with D-HyDAMO in delftd3fmpy v.2.0.3 on 2023-03-02T12:34:45.808439Z.
# Tested and compatible with D-Flow FM Deltares, D-Flow FM Version 5.00.024.74498M, DIMRset Deltares, DIMR_EXE Version 2.00.00.140737 (Win64) (Win64) and D-HYDRO suite 1D2D D-HYDRO Suite 2022.03 1D2D,.
# 
[General]
fileVersion = 2.00
fileType = iniField

[Initial]
	quantity = waterDepth
	unit = m
	dataFileType = 1dField
	dataFile = ./initialWaterDepth.ini

