# Generated with D-HyDAMO in delftd3fmpy v.2.0.3 on 2023-03-02T12:34:45.808439Z.
# Tested and compatible with D-Flow FM Deltares, D-Flow FM Version 5.00.024.74498M, DIMRset Deltares, DIMR_EXE Version 2.00.00.140737 (Win64) (Win64) and D-HYDRO suite 1D2D D-HYDRO Suite 2022.03 1D2D,.
# 
[General]
fileVersion = 3.00
fileType = structure

[Structure]
	type = culvert
	id = 1050093
	name = 1050093
	branchid = 1051640
	chainage = 227.346
	allowedFlowDir = both
	leftLevel = 15.3
	rightLevel = 15.26
	csDefId = 1050093
	length = 10.45
	inletLossCoeff = 1.0
	outletLossCoeff = 1.0
	valveOnOff = 0
	numLossCoeff = 0
	bedFrictionType = Strickler
	bedFriction = 75.0

[Structure]
	type = culvert
	id = 1050136
	name = 1050136
	branchid = 1052440
	chainage = 402.503
	allowedFlowDir = both
	leftLevel = 17.11
	rightLevel = 17.2
	csDefId = 1050136
	length = 7.36
	inletLossCoeff = 1.0
	outletLossCoeff = 1.0
	valveOnOff = 0
	numLossCoeff = 0
	bedFrictionType = Strickler
	bedFriction = 75.0

[Structure]
	type = culvert
	id = 1050160
	name = 1050160
	branchid = 1052770
	chainage = 95.257
	allowedFlowDir = both
	leftLevel = 16.76
	rightLevel = 16.73
	csDefId = 1050160
	length = 23.31
	inletLossCoeff = 1.0
	outletLossCoeff = 1.0
	valveOnOff = 0
	numLossCoeff = 0
	bedFrictionType = Strickler
	bedFriction = 75.0

[Structure]
	type = culvert
	id = 1050249
	name = 1050249
	branchid = 1055847
	chainage = 11.896
	allowedFlowDir = both
	leftLevel = 15.36
	rightLevel = 15.36
	csDefId = 1050249
	length = 7.0
	inletLossCoeff = 1.0
	outletLossCoeff = 1.0
	valveOnOff = 0
	numLossCoeff = 0
	bedFrictionType = Strickler
	bedFriction = 75.0

[Structure]
	type = culvert
	id = 1050260
	name = 1050260
	branchid = 1055935
	chainage = 168.578
	allowedFlowDir = both
	leftLevel = 14.74
	rightLevel = 14.58
	csDefId = 1050260
	length = 10.26
	inletLossCoeff = 1.0
	outletLossCoeff = 1.0
	valveOnOff = 0
	numLossCoeff = 0
	bedFrictionType = Strickler
	bedFriction = 75.0

[Structure]
	type = culvert
	id = 1050221
	name = 1050221
	branchid = 1055140
	chainage = 227.641
	allowedFlowDir = both
	leftLevel = 16.33
	rightLevel = 16.33
	csDefId = 1050221
	length = 13.63
	inletLossCoeff = 1.0
	outletLossCoeff = 1.0
	valveOnOff = 0
	numLossCoeff = 0
	bedFrictionType = Strickler
	bedFriction = 75.0

[Structure]
	type = culvert
	id = 1050435
	name = 1050435
	branchid = 1052935
	chainage = 313.883
	allowedFlowDir = both
	leftLevel = 15.36
	rightLevel = 15.38
	csDefId = 1050435
	length = 13.75
	inletLossCoeff = 1.0
	outletLossCoeff = 1.0
	valveOnOff = 0
	numLossCoeff = 0
	bedFrictionType = Strickler
	bedFriction = 75.0

[Structure]
	type = culvert
	id = 1050422
	name = 1050422
	branchid = 1055850
	chainage = 318.47
	allowedFlowDir = both
	leftLevel = 14.51
	rightLevel = 14.54
	csDefId = 1050422
	length = 10.09
	inletLossCoeff = 1.0
	outletLossCoeff = 1.0
	valveOnOff = 0
	numLossCoeff = 0
	bedFrictionType = Strickler
	bedFriction = 75.0

[Structure]
	type = culvert
	id = 1050371
	name = 1050371
	branchid = 1055830
	chainage = 146.934
	allowedFlowDir = both
	leftLevel = 15.52
	rightLevel = 15.54
	csDefId = 1050371
	length = 5.96
	inletLossCoeff = 1.0
	outletLossCoeff = 1.0
	valveOnOff = 0
	numLossCoeff = 0
	bedFrictionType = Strickler
	bedFriction = 75.0

[Structure]
	type = culvert
	id = 1050375
	name = 1050375
	branchid = 1055945
	chainage = 1.547
	allowedFlowDir = both
	leftLevel = 14.7
	rightLevel = 14.7
	csDefId = 1050375
	length = 3.13
	inletLossCoeff = 1.0
	outletLossCoeff = 1.0
	valveOnOff = 0
	numLossCoeff = 0
	bedFrictionType = Strickler
	bedFriction = 75.0

[Structure]
	type = culvert
	id = 1050374
	name = 1050374
	branchid = 1055930
	chainage = 51.777
	allowedFlowDir = both
	leftLevel = 15.71
	rightLevel = 15.72
	csDefId = 1050374
	length = 7.74
	inletLossCoeff = 1.0
	outletLossCoeff = 1.0
	valveOnOff = 0
	numLossCoeff = 0
	bedFrictionType = Strickler
	bedFriction = 75.0

[Structure]
	type = culvert
	id = 1050373
	name = 1050373
	branchid = 1055910
	chainage = 47.69
	allowedFlowDir = both
	leftLevel = 15.66
	rightLevel = 15.76
	csDefId = 1050373
	length = 7.67
	inletLossCoeff = 1.0
	outletLossCoeff = 1.0
	valveOnOff = 0
	numLossCoeff = 0
	bedFrictionType = Strickler
	bedFriction = 75.0

[Structure]
	type = culvert
	id = 1050410
	name = 1050410
	branchid = 1057150
	chainage = 1.605
	allowedFlowDir = both
	leftLevel = 14.26
	rightLevel = 14.24
	csDefId = 1050410
	length = 3.21
	inletLossCoeff = 1.0
	outletLossCoeff = 1.0
	valveOnOff = 0
	numLossCoeff = 0
	bedFrictionType = Strickler
	bedFriction = 75.0

[Structure]
	type = culvert
	id = 1050408
	name = 1050408
	branchid = 1057040
	chainage = 46.103
	allowedFlowDir = both
	leftLevel = 14.96
	rightLevel = 14.89
	csDefId = 1050408
	length = 5.04
	inletLossCoeff = 1.0
	outletLossCoeff = 1.0
	valveOnOff = 0
	numLossCoeff = 0
	bedFrictionType = Strickler
	bedFriction = 75.0

[Structure]
	type = culvert
	id = 1050412
	name = 1050412
	branchid = 1057740
	chainage = 61.093
	allowedFlowDir = both
	leftLevel = 8.14
	rightLevel = 8.16
	csDefId = 1050412
	length = 6.5
	inletLossCoeff = 1.0
	outletLossCoeff = 1.0
	valveOnOff = 0
	numLossCoeff = 0
	bedFrictionType = Strickler
	bedFriction = 75.0

[Structure]
	type = culvert
	id = 1050407
	name = 1050407
	branchid = 1057040
	chainage = 82.478
	allowedFlowDir = both
	leftLevel = 14.87
	rightLevel = 14.87
	csDefId = 1050407
	length = 5.02
	inletLossCoeff = 1.0
	outletLossCoeff = 1.0
	valveOnOff = 0
	numLossCoeff = 0
	bedFrictionType = Strickler
	bedFriction = 75.0

[Structure]
	type = culvert
	id = 1050363
	name = 1050363
	branchid = 1057110
	chainage = 200.79
	allowedFlowDir = both
	leftLevel = 14.66
	rightLevel = 14.59
	csDefId = 1050363
	length = 8.34
	inletLossCoeff = 1.0
	outletLossCoeff = 1.0
	valveOnOff = 0
	numLossCoeff = 0
	bedFrictionType = Strickler
	bedFriction = 75.0

[Structure]
	type = culvert
	id = 1050376
	name = 1050376
	branchid = 1057520
	chainage = 9.322
	allowedFlowDir = both
	leftLevel = 15.7
	rightLevel = 15.69
	csDefId = 1050376
	length = 4.22
	inletLossCoeff = 1.0
	outletLossCoeff = 1.0
	valveOnOff = 0
	numLossCoeff = 0
	bedFrictionType = Strickler
	bedFriction = 75.0

[Structure]
	type = culvert
	id = 1050387
	name = 1050387
	branchid = 1052770
	chainage = 11.051
	allowedFlowDir = both
	leftLevel = 16.49
	rightLevel = 16.54
	csDefId = 1050387
	length = 22.1
	inletLossCoeff = 1.0
	outletLossCoeff = 1.0
	valveOnOff = 0
	numLossCoeff = 0
	bedFrictionType = Strickler
	bedFriction = 75.0

[Structure]
	type = culvert
	id = 1050383
	name = 1050383
	branchid = 1052765
	chainage = 157.674
	allowedFlowDir = both
	leftLevel = 16.57
	rightLevel = 16.56
	csDefId = 1050383
	length = 27.51
	inletLossCoeff = 1.0
	outletLossCoeff = 1.0
	valveOnOff = 0
	numLossCoeff = 0
	bedFrictionType = Strickler
	bedFriction = 75.0

[Structure]
	type = culvert
	id = 1050005
	name = 1050005
	branchid = 1050150
	chainage = 24.456
	allowedFlowDir = both
	leftLevel = 16.97
	rightLevel = 16.92
	csDefId = 1050005
	length = 28.59
	inletLossCoeff = 1.0
	outletLossCoeff = 1.0
	valveOnOff = 0
	numLossCoeff = 0
	bedFrictionType = Strickler
	bedFriction = 75.0

[Structure]
	type = culvert
	id = 1050095
	name = 1050095
	branchid = 1052010
	chainage = 5.733
	allowedFlowDir = both
	leftLevel = 19.39
	rightLevel = 19.42
	csDefId = 1050095
	length = 10.17
	inletLossCoeff = 1.0
	outletLossCoeff = 1.0
	valveOnOff = 0
	numLossCoeff = 0
	bedFrictionType = Strickler
	bedFriction = 75.0

[Structure]
	type = culvert
	id = 1050126
	name = 1050126
	branchid = 1052210
	chainage = 287.882
	allowedFlowDir = both
	leftLevel = 17.68
	rightLevel = 17.69
	csDefId = 1050126
	length = 9.81
	inletLossCoeff = 1.0
	outletLossCoeff = 1.0
	valveOnOff = 0
	numLossCoeff = 0
	bedFrictionType = Strickler
	bedFriction = 75.0

[Structure]
	type = culvert
	id = 1050131
	name = 1050131
	branchid = 1052420
	chainage = 6.659
	allowedFlowDir = both
	leftLevel = 17.94
	rightLevel = 17.87
	csDefId = 1050131
	length = 12.08
	inletLossCoeff = 1.0
	outletLossCoeff = 1.0
	valveOnOff = 0
	numLossCoeff = 0
	bedFrictionType = Strickler
	bedFriction = 75.0

[Structure]
	type = culvert
	id = 1050233
	name = 1050233
	branchid = 1055420
	chainage = 337.887
	allowedFlowDir = both
	leftLevel = 16.62
	rightLevel = 16.57
	csDefId = 1050233
	length = 8.27
	inletLossCoeff = 1.0
	outletLossCoeff = 1.0
	valveOnOff = 0
	numLossCoeff = 0
	bedFrictionType = Strickler
	bedFriction = 75.0

[Structure]
	type = culvert
	id = 1050245
	name = 1050245
	branchid = 1055820
	chainage = 171.376
	allowedFlowDir = both
	leftLevel = 15.94
	rightLevel = 15.99
	csDefId = 1050245
	length = 7.55
	inletLossCoeff = 1.0
	outletLossCoeff = 1.0
	valveOnOff = 0
	numLossCoeff = 0
	bedFrictionType = Strickler
	bedFriction = 75.0

[Structure]
	type = culvert
	id = 1050252
	name = 1050252
	branchid = 1055910
	chainage = 4.281
	allowedFlowDir = both
	leftLevel = 15.85
	rightLevel = 15.85
	csDefId = 1050252
	length = 7.42
	inletLossCoeff = 1.0
	outletLossCoeff = 1.0
	valveOnOff = 0
	numLossCoeff = 0
	bedFrictionType = Strickler
	bedFriction = 75.0

[Structure]
	type = culvert
	id = 1050381
	name = 1050381
	branchid = 1053640
	chainage = 22.531
	allowedFlowDir = both
	leftLevel = 16.82
	rightLevel = 16.75
	csDefId = 1050381
	length = 14.74
	inletLossCoeff = 1.0
	outletLossCoeff = 1.0
	valveOnOff = 0
	numLossCoeff = 0
	bedFrictionType = Strickler
	bedFriction = 100.0

[Structure]
	type = culvert
	id = 1050388
	name = 1050388
	branchid = 1052770
	chainage = 68.005
	allowedFlowDir = both
	leftLevel = 16.74
	rightLevel = 16.77
	csDefId = 1050388
	length = 7.88
	inletLossCoeff = 1.0
	outletLossCoeff = 1.0
	valveOnOff = 0
	numLossCoeff = 0
	bedFrictionType = Strickler
	bedFriction = 100.0

[Structure]
	type = culvert
	id = 1050333
	name = 1050333
	branchid = 1052740
	chainage = 104.658
	allowedFlowDir = both
	leftLevel = 16.75
	rightLevel = 16.75
	csDefId = 1050333
	length = 5.32
	inletLossCoeff = 1.0
	outletLossCoeff = 1.0
	valveOnOff = 0
	numLossCoeff = 0
	bedFrictionType = Strickler
	bedFriction = 100.0

[Structure]
	type = culvert
	id = 1050027
	name = 1050027
	branchid = 1051010
	chainage = 396.08
	allowedFlowDir = both
	leftLevel = 20.28
	rightLevel = 19.86
	csDefId = 1050027
	length = 9.69
	inletLossCoeff = 1.0
	outletLossCoeff = 1.0
	valveOnOff = 0
	numLossCoeff = 0
	bedFrictionType = Strickler
	bedFriction = 75.0

[Structure]
	type = culvert
	id = 1050081
	name = 1050081
	branchid = 1051510
	chainage = 103.337
	allowedFlowDir = both
	leftLevel = 15.72
	rightLevel = 15.74
	csDefId = 1050081
	length = 70.05
	inletLossCoeff = 1.0
	outletLossCoeff = 1.0
	valveOnOff = 0
	numLossCoeff = 0
	bedFrictionType = Strickler
	bedFriction = 75.0

[Structure]
	type = culvert
	id = 1050108
	name = 1050108
	branchid = 1052020
	chainage = 273.292
	allowedFlowDir = both
	leftLevel = 18.98
	rightLevel = 18.92
	csDefId = 1050108
	length = 9.68
	inletLossCoeff = 1.0
	outletLossCoeff = 1.0
	valveOnOff = 0
	numLossCoeff = 0
	bedFrictionType = Strickler
	bedFriction = 75.0

[Structure]
	type = culvert
	id = 1050121
	name = 1050121
	branchid = 1052160
	chainage = 133.508
	allowedFlowDir = both
	leftLevel = 17.8
	rightLevel = 17.88
	csDefId = 1050121
	length = 7.39
	inletLossCoeff = 1.0
	outletLossCoeff = 1.0
	valveOnOff = 0
	numLossCoeff = 0
	bedFrictionType = Strickler
	bedFriction = 75.0

[Structure]
	type = culvert
	id = 1050125
	name = 1050125
	branchid = 1052210
	chainage = 117.892
	allowedFlowDir = both
	leftLevel = 17.92
	rightLevel = 17.87
	csDefId = 1050125
	length = 9.88
	inletLossCoeff = 1.0
	outletLossCoeff = 1.0
	valveOnOff = 0
	numLossCoeff = 0
	bedFrictionType = Strickler
	bedFriction = 75.0

[Structure]
	type = culvert
	id = 1050240
	name = 1050240
	branchid = 1055640
	chainage = 13.012
	allowedFlowDir = both
	leftLevel = 15.22
	rightLevel = 15.21
	csDefId = 1050240
	length = 8.46
	inletLossCoeff = 1.0
	outletLossCoeff = 1.0
	valveOnOff = 0
	numLossCoeff = 0
	bedFrictionType = Strickler
	bedFriction = 75.0

[Structure]
	type = culvert
	id = 1050184
	name = 1050184
	branchid = 1054010
	chainage = 16.173
	allowedFlowDir = both
	leftLevel = 19.07
	rightLevel = 19.06
	csDefId = 1050184
	length = 31.93
	inletLossCoeff = 1.0
	outletLossCoeff = 1.0
	valveOnOff = 0
	numLossCoeff = 0
	bedFrictionType = Strickler
	bedFriction = 75.0

[Structure]
	type = culvert
	id = 1050011
	name = 1050011
	branchid = 1050510
	chainage = 250.954
	allowedFlowDir = both
	leftLevel = 16.46
	rightLevel = 16.48
	csDefId = 1050011
	length = 7.46
	inletLossCoeff = 1.0
	outletLossCoeff = 1.0
	valveOnOff = 0
	numLossCoeff = 0
	bedFrictionType = Strickler
	bedFriction = 75.0

[Structure]
	type = culvert
	id = 1050060
	name = 1050060
	branchid = 1051250
	chainage = 302.485
	allowedFlowDir = both
	leftLevel = 16.9
	rightLevel = 16.92
	csDefId = 1050060
	length = 10.52
	inletLossCoeff = 1.0
	outletLossCoeff = 1.0
	valveOnOff = 0
	numLossCoeff = 0
	bedFrictionType = Strickler
	bedFriction = 75.0

[Structure]
	type = culvert
	id = 1050073
	name = 1050073
	branchid = 1051360
	chainage = 23.83
	allowedFlowDir = both
	leftLevel = 16.49
	rightLevel = 16.43
	csDefId = 1050073
	length = 21.26
	inletLossCoeff = 1.0
	outletLossCoeff = 1.0
	valveOnOff = 0
	numLossCoeff = 0
	bedFrictionType = Strickler
	bedFriction = 75.0

[Structure]
	type = culvert
	id = 1050083
	name = 1050083
	branchid = 1051610
	chainage = 4.382
	allowedFlowDir = both
	leftLevel = 15.91
	rightLevel = 16.0
	csDefId = 1050083
	length = 7.28
	inletLossCoeff = 1.0
	outletLossCoeff = 1.0
	valveOnOff = 0
	numLossCoeff = 0
	bedFrictionType = Strickler
	bedFriction = 75.0

[Structure]
	type = culvert
	id = 1050094
	name = 1050094
	branchid = 1051650
	chainage = 145.307
	allowedFlowDir = both
	leftLevel = 15.22
	rightLevel = 15.22
	csDefId = 1050094
	length = 7.76
	inletLossCoeff = 1.0
	outletLossCoeff = 1.0
	valveOnOff = 0
	numLossCoeff = 0
	bedFrictionType = Strickler
	bedFriction = 75.0

[Structure]
	type = culvert
	id = 1050096
	name = 1050096
	branchid = 1052010
	chainage = 122.203
	allowedFlowDir = both
	leftLevel = 19.48
	rightLevel = 19.48
	csDefId = 1050096
	length = 7.35
	inletLossCoeff = 1.0
	outletLossCoeff = 1.0
	valveOnOff = 0
	numLossCoeff = 0
	bedFrictionType = Strickler
	bedFriction = 75.0

[Structure]
	type = culvert
	id = 1050100
	name = 1050100
	branchid = 1052020
	chainage = 36.792
	allowedFlowDir = both
	leftLevel = 19.06
	rightLevel = 19.03
	csDefId = 1050100
	length = 29.02
	inletLossCoeff = 1.0
	outletLossCoeff = 1.0
	valveOnOff = 0
	numLossCoeff = 0
	bedFrictionType = Strickler
	bedFriction = 75.0

[Structure]
	type = culvert
	id = 1050225
	name = 1050225
	branchid = 1055220
	chainage = 396.189
	allowedFlowDir = both
	leftLevel = 16.21
	rightLevel = 16.18
	csDefId = 1050225
	length = 9.37
	inletLossCoeff = 1.0
	outletLossCoeff = 1.0
	valveOnOff = 0
	numLossCoeff = 0
	bedFrictionType = Strickler
	bedFriction = 75.0

[Structure]
	type = culvert
	id = 1050336
	name = 1050336
	branchid = 1054255
	chainage = 14.444
	allowedFlowDir = both
	leftLevel = 13.08
	rightLevel = 13.11
	csDefId = 1050336
	length = 8.7
	inletLossCoeff = 1.0
	outletLossCoeff = 1.0
	valveOnOff = 0
	numLossCoeff = 0
	bedFrictionType = Strickler
	bedFriction = 75.0

[Structure]
	type = culvert
	id = 1050172
	name = 1050172
	branchid = 1053030
	chainage = 81.847
	allowedFlowDir = both
	leftLevel = 15.39
	rightLevel = 15.51
	csDefId = 1050172
	length = 8.41
	inletLossCoeff = 1.0
	outletLossCoeff = 1.0
	valveOnOff = 0
	numLossCoeff = 0
	bedFrictionType = Strickler
	bedFriction = 75.0

[Structure]
	type = culvert
	id = 1050200
	name = 1050200
	branchid = 1055010
	chainage = 7.224
	allowedFlowDir = both
	leftLevel = 19.03
	rightLevel = 19.01
	csDefId = 1050200
	length = 12.27
	inletLossCoeff = 1.0
	outletLossCoeff = 1.0
	valveOnOff = 0
	numLossCoeff = 0
	bedFrictionType = Strickler
	bedFriction = 75.0

[Structure]
	type = culvert
	id = 1050263
	name = 1050263
	branchid = 1055950
	chainage = 254.848
	allowedFlowDir = both
	leftLevel = 14.16
	rightLevel = 14.18
	csDefId = 1050263
	length = 7.53
	inletLossCoeff = 1.0
	outletLossCoeff = 1.0
	valveOnOff = 0
	numLossCoeff = 0
	bedFrictionType = Strickler
	bedFriction = 30.0

[Structure]
	type = culvert
	id = 1050436
	name = 1050436
	branchid = 1054030
	chainage = 569.167
	allowedFlowDir = both
	leftLevel = 17.23
	rightLevel = 17.2
	csDefId = 1050436
	length = 7.92
	inletLossCoeff = 1.0
	outletLossCoeff = 1.0
	valveOnOff = 0
	numLossCoeff = 0
	bedFrictionType = Strickler
	bedFriction = 75.0

[Structure]
	type = culvert
	id = 1050012
	name = 1050012
	branchid = 1050510
	chainage = 423.066
	allowedFlowDir = both
	leftLevel = 16.37
	rightLevel = 16.35
	csDefId = 1050012
	length = 12.36
	inletLossCoeff = 1.0
	outletLossCoeff = 1.0
	valveOnOff = 0
	numLossCoeff = 0
	bedFrictionType = Strickler
	bedFriction = 75.0

[Structure]
	type = culvert
	id = 1160113
	name = 1160113
	branchid = 1051310
	chainage = 37.498
	allowedFlowDir = both
	leftLevel = 17.93
	rightLevel = 17.9
	csDefId = 1160113
	length = 17.49
	inletLossCoeff = 1.0
	outletLossCoeff = 1.0
	valveOnOff = 0
	numLossCoeff = 0
	bedFrictionType = Strickler
	bedFriction = 75.0

[Structure]
	type = culvert
	id = 1050401
	name = 1050401
	branchid = 1054080
	chainage = 56.438
	allowedFlowDir = both
	leftLevel = 16.32
	rightLevel = 16.16
	csDefId = 1050401
	length = 22.46
	inletLossCoeff = 1.0
	outletLossCoeff = 1.0
	valveOnOff = 0
	numLossCoeff = 0
	bedFrictionType = Strickler
	bedFriction = 75.0

[Structure]
	type = culvert
	id = 1050402
	name = 1050402
	branchid = 1054120
	chainage = 1.797
	allowedFlowDir = both
	leftLevel = 14.96
	rightLevel = 14.98
	csDefId = 1050402
	length = 2.52
	inletLossCoeff = 1.0
	outletLossCoeff = 1.0
	valveOnOff = 0
	numLossCoeff = 0
	bedFrictionType = Strickler
	bedFriction = 75.0

[Structure]
	type = culvert
	id = 1050395
	name = 1050395
	branchid = 1054030
	chainage = 120.061
	allowedFlowDir = both
	leftLevel = 17.64
	rightLevel = 17.64
	csDefId = 1050395
	length = 5.41
	inletLossCoeff = 1.0
	outletLossCoeff = 1.0
	valveOnOff = 0
	numLossCoeff = 0
	bedFrictionType = Strickler
	bedFriction = 75.0

[Structure]
	type = culvert
	id = 1050033
	name = 1050033
	branchid = 1051040
	chainage = 110.473
	allowedFlowDir = both
	leftLevel = 19.29
	rightLevel = 19.21
	csDefId = 1050033
	length = 3.33
	inletLossCoeff = 1.0
	outletLossCoeff = 1.0
	valveOnOff = 0
	numLossCoeff = 0
	bedFrictionType = Strickler
	bedFriction = 75.0

[Structure]
	type = culvert
	id = 1050092
	name = 1050092
	branchid = 1051640
	chainage = 7.078
	allowedFlowDir = both
	leftLevel = 15.4
	rightLevel = 15.47
	csDefId = 1050092
	length = 12.3
	inletLossCoeff = 1.0
	outletLossCoeff = 1.0
	valveOnOff = 0
	numLossCoeff = 0
	bedFrictionType = Strickler
	bedFriction = 75.0

[Structure]
	type = culvert
	id = 1050297
	name = 1050297
	branchid = 1057560
	chainage = 228.39
	allowedFlowDir = both
	leftLevel = 13.25
	rightLevel = 13.29
	csDefId = 1050297
	length = 7.57
	inletLossCoeff = 1.0
	outletLossCoeff = 1.0
	valveOnOff = 0
	numLossCoeff = 0
	bedFrictionType = Strickler
	bedFriction = 75.0

[Structure]
	type = culvert
	id = 1050132
	name = 1050132
	branchid = 1052420
	chainage = 18.799
	allowedFlowDir = both
	leftLevel = 17.87
	rightLevel = 17.91
	csDefId = 1050132
	length = 7.24
	inletLossCoeff = 1.0
	outletLossCoeff = 1.0
	valveOnOff = 0
	numLossCoeff = 0
	bedFrictionType = Strickler
	bedFriction = 75.0

[Structure]
	type = culvert
	id = 1050023
	name = 1050023
	branchid = 1050610
	chainage = 232.26
	allowedFlowDir = both
	leftLevel = 16.61
	rightLevel = 16.6
	csDefId = 1050023
	length = 10.53
	inletLossCoeff = 1.0
	outletLossCoeff = 1.0
	valveOnOff = 0
	numLossCoeff = 0
	bedFrictionType = Strickler
	bedFriction = 75.0

[Structure]
	type = culvert
	id = 1050105
	name = 1050105
	branchid = 1052020
	chainage = 197.342
	allowedFlowDir = both
	leftLevel = 19.1
	rightLevel = 18.99
	csDefId = 1050105
	length = 12.69
	inletLossCoeff = 1.0
	outletLossCoeff = 1.0
	valveOnOff = 0
	numLossCoeff = 0
	bedFrictionType = Strickler
	bedFriction = 75.0

[Structure]
	type = culvert
	id = 1050227
	name = 1050227
	branchid = 1055230
	chainage = 310.608
	allowedFlowDir = both
	leftLevel = 15.74
	rightLevel = 15.83
	csDefId = 1050227
	length = 10.56
	inletLossCoeff = 1.0
	outletLossCoeff = 1.0
	valveOnOff = 0
	numLossCoeff = 0
	bedFrictionType = Strickler
	bedFriction = 75.0

[Structure]
	type = culvert
	id = 1050294
	name = 1050294
	branchid = 1057520
	chainage = 23.815
	allowedFlowDir = both
	leftLevel = 15.76
	rightLevel = 15.65
	csDefId = 1050294
	length = 7.27
	inletLossCoeff = 1.0
	outletLossCoeff = 1.0
	valveOnOff = 0
	numLossCoeff = 0
	bedFrictionType = Strickler
	bedFriction = 75.0

[Structure]
	type = culvert
	id = 1050437
	name = 1050437
	branchid = 1051630
	chainage = 73.329
	allowedFlowDir = both
	leftLevel = 15.71
	rightLevel = 15.65
	csDefId = 1050437
	length = 12.44
	inletLossCoeff = 1.0
	outletLossCoeff = 1.0
	valveOnOff = 0
	numLossCoeff = 0
	bedFrictionType = Strickler
	bedFriction = 75.0

[Structure]
	type = culvert
	id = 1050079
	name = 1050079
	branchid = 1051380
	chainage = 194.448
	allowedFlowDir = both
	leftLevel = 15.26
	rightLevel = 15.44
	csDefId = 1050079
	length = 18.95
	inletLossCoeff = 1.0
	outletLossCoeff = 1.0
	valveOnOff = 0
	numLossCoeff = 0
	bedFrictionType = Strickler
	bedFriction = 75.0

[Structure]
	type = culvert
	id = 1050332
	name = 1050332
	branchid = 1051310
	chainage = 242.7
	allowedFlowDir = both
	leftLevel = 17.79
	rightLevel = 17.83
	csDefId = 1050332
	length = 5.21
	inletLossCoeff = 1.0
	outletLossCoeff = 1.0
	valveOnOff = 0
	numLossCoeff = 0
	bedFrictionType = Strickler
	bedFriction = 90.0

[Structure]
	type = culvert
	id = 1050056
	name = 1050056
	branchid = 1051150
	chainage = 107.725
	allowedFlowDir = both
	leftLevel = 17.83
	rightLevel = 17.83
	csDefId = 1050056
	length = 7.39
	inletLossCoeff = 1.0
	outletLossCoeff = 1.0
	valveOnOff = 0
	numLossCoeff = 0
	bedFrictionType = Strickler
	bedFriction = 75.0

[Structure]
	type = culvert
	id = 1050141
	name = 1050141
	branchid = 1052480
	chainage = 4.484
	allowedFlowDir = both
	leftLevel = 16.19
	rightLevel = 16.3
	csDefId = 1050141
	length = 7.51
	inletLossCoeff = 1.0
	outletLossCoeff = 1.0
	valveOnOff = 0
	numLossCoeff = 0
	bedFrictionType = Strickler
	bedFriction = 75.0

[Structure]
	type = culvert
	id = 1050176
	name = 1050176
	branchid = 1053220
	chainage = 176.963
	allowedFlowDir = both
	leftLevel = 14.81
	rightLevel = 14.84
	csDefId = 1050176
	length = 12.32
	inletLossCoeff = 1.0
	outletLossCoeff = 1.0
	valveOnOff = 0
	numLossCoeff = 0
	bedFrictionType = Strickler
	bedFriction = 75.0

[Structure]
	type = culvert
	id = 1050248
	name = 1050248
	branchid = 1055830
	chainage = 155.144
	allowedFlowDir = both
	leftLevel = 15.58
	rightLevel = 15.53
	csDefId = 1050248
	length = 10.15
	inletLossCoeff = 1.0
	outletLossCoeff = 1.0
	valveOnOff = 0
	numLossCoeff = 0
	bedFrictionType = Strickler
	bedFriction = 75.0

[Structure]
	type = culvert
	id = 1050034
	name = 1050034
	branchid = 1051050
	chainage = 14.453
	allowedFlowDir = both
	leftLevel = 19.37
	rightLevel = 19.23
	csDefId = 1050034
	length = 4.99
	inletLossCoeff = 1.0
	outletLossCoeff = 1.0
	valveOnOff = 0
	numLossCoeff = 0
	bedFrictionType = Strickler
	bedFriction = 75.0

[Structure]
	type = culvert
	id = 1050104
	name = 1050104
	branchid = 1052020
	chainage = 182.202
	allowedFlowDir = both
	leftLevel = 19.04
	rightLevel = 18.99
	csDefId = 1050104
	length = 7.29
	inletLossCoeff = 1.0
	outletLossCoeff = 1.0
	valveOnOff = 0
	numLossCoeff = 0
	bedFrictionType = Strickler
	bedFriction = 75.0

[Structure]
	type = culvert
	id = 1050133
	name = 1050133
	branchid = 1052420
	chainage = 88.345
	allowedFlowDir = both
	leftLevel = 17.84
	rightLevel = 17.88
	csDefId = 1050133
	length = 7.37
	inletLossCoeff = 1.0
	outletLossCoeff = 1.0
	valveOnOff = 0
	numLossCoeff = 0
	bedFrictionType = Strickler
	bedFriction = 75.0

[Structure]
	type = culvert
	id = 1050146
	name = 1050146
	branchid = 1052500
	chainage = 237.631
	allowedFlowDir = both
	leftLevel = 15.9
	rightLevel = 15.9
	csDefId = 1050146
	length = 3.95
	inletLossCoeff = 1.0
	outletLossCoeff = 1.0
	valveOnOff = 0
	numLossCoeff = 0
	bedFrictionType = Strickler
	bedFriction = 75.0

[Structure]
	type = culvert
	id = 1050097
	name = 1050097
	branchid = 1052010
	chainage = 161.624
	allowedFlowDir = both
	leftLevel = 19.48
	rightLevel = 19.35
	csDefId = 1050097
	length = 10.02
	inletLossCoeff = 1.0
	outletLossCoeff = 1.0
	valveOnOff = 0
	numLossCoeff = 0
	bedFrictionType = Strickler
	bedFriction = 75.0

[Structure]
	type = culvert
	id = 1050118
	name = 1050118
	branchid = 1052130
	chainage = 149.532
	allowedFlowDir = both
	leftLevel = 18.69
	rightLevel = 18.68
	csDefId = 1050118
	length = 7.44
	inletLossCoeff = 1.0
	outletLossCoeff = 1.0
	valveOnOff = 0
	numLossCoeff = 0
	bedFrictionType = Strickler
	bedFriction = 75.0

[Structure]
	type = culvert
	id = 1050147
	name = 1050147
	branchid = 1052500
	chainage = 266.71
	allowedFlowDir = both
	leftLevel = 15.61
	rightLevel = 15.7
	csDefId = 1050147
	length = 10.27
	inletLossCoeff = 1.0
	outletLossCoeff = 1.0
	valveOnOff = 0
	numLossCoeff = 0
	bedFrictionType = Strickler
	bedFriction = 75.0

[Structure]
	type = culvert
	id = 1050170
	name = 1050170
	branchid = 1053010
	chainage = 73.203
	allowedFlowDir = both
	leftLevel = 16.44
	rightLevel = 16.4
	csDefId = 1050170
	length = 2.98
	inletLossCoeff = 1.0
	outletLossCoeff = 1.0
	valveOnOff = 0
	numLossCoeff = 0
	bedFrictionType = Strickler
	bedFriction = 75.0

[Structure]
	type = culvert
	id = 1050310
	name = 1050310
	branchid = 1057700
	chainage = 193.618
	allowedFlowDir = both
	leftLevel = 8.99
	rightLevel = 8.87
	csDefId = 1050310
	length = 8.28
	inletLossCoeff = 1.0
	outletLossCoeff = 1.0
	valveOnOff = 0
	numLossCoeff = 0
	bedFrictionType = Strickler
	bedFriction = 75.0

[Structure]
	type = culvert
	id = 1050378
	name = 1050378
	branchid = 1057520
	chainage = 376.076
	allowedFlowDir = both
	leftLevel = 15.31
	rightLevel = 14.95
	csDefId = 1050378
	length = 80.71
	inletLossCoeff = 1.0
	outletLossCoeff = 1.0
	valveOnOff = 0
	numLossCoeff = 0
	bedFrictionType = Strickler
	bedFriction = 75.0

[Structure]
	type = culvert
	id = 1050063
	name = 1050063
	branchid = 1051328
	chainage = 121.539
	allowedFlowDir = both
	leftLevel = 17.71
	rightLevel = 17.72
	csDefId = 1050063
	length = 7.49
	inletLossCoeff = 1.0
	outletLossCoeff = 1.0
	valveOnOff = 0
	numLossCoeff = 0
	bedFrictionType = Strickler
	bedFriction = 75.0

[Structure]
	type = culvert
	id = 1050099
	name = 1050099
	branchid = 1052020
	chainage = 4.873
	allowedFlowDir = both
	leftLevel = 19.18
	rightLevel = 19.18
	csDefId = 1050099
	length = 9.75
	inletLossCoeff = 1.0
	outletLossCoeff = 1.0
	valveOnOff = 0
	numLossCoeff = 0
	bedFrictionType = Strickler
	bedFriction = 75.0

[Structure]
	type = culvert
	id = 1050114
	name = 1050114
	branchid = 1052050
	chainage = 380.509
	allowedFlowDir = both
	leftLevel = 18.39
	rightLevel = 18.35
	csDefId = 1050114
	length = 9.78
	inletLossCoeff = 1.0
	outletLossCoeff = 1.0
	valveOnOff = 0
	numLossCoeff = 0
	bedFrictionType = Strickler
	bedFriction = 75.0

[Structure]
	type = culvert
	id = 1050328
	name = 1050328
	branchid = 1051050
	chainage = 79.293
	allowedFlowDir = both
	leftLevel = 19.13
	rightLevel = 19.06
	csDefId = 1050328
	length = 2.56
	inletLossCoeff = 1.0
	outletLossCoeff = 1.0
	valveOnOff = 0
	numLossCoeff = 0
	bedFrictionType = Strickler
	bedFriction = 75.0

[Structure]
	type = culvert
	id = 1050127
	name = 1050127
	branchid = 1052220
	chainage = 162.489
	allowedFlowDir = both
	leftLevel = 17.49
	rightLevel = 17.5
	csDefId = 1050127
	length = 9.9
	inletLossCoeff = 1.0
	outletLossCoeff = 1.0
	valveOnOff = 0
	numLossCoeff = 0
	bedFrictionType = Strickler
	bedFriction = 75.0

[Structure]
	type = culvert
	id = 1050201
	name = 1050201
	branchid = 1055010
	chainage = 159.554
	allowedFlowDir = both
	leftLevel = 18.86
	rightLevel = 18.87
	csDefId = 1050201
	length = 10.15
	inletLossCoeff = 1.0
	outletLossCoeff = 1.0
	valveOnOff = 0
	numLossCoeff = 0
	bedFrictionType = Strickler
	bedFriction = 75.0

[Structure]
	type = culvert
	id = 1050264
	name = 1050264
	branchid = 1055950
	chainage = 310.305
	allowedFlowDir = both
	leftLevel = 14.05
	rightLevel = 14.05
	csDefId = 1050264
	length = 10.41
	inletLossCoeff = 1.0
	outletLossCoeff = 1.0
	valveOnOff = 0
	numLossCoeff = 0
	bedFrictionType = Strickler
	bedFriction = 30.0

[Structure]
	type = culvert
	id = 1050062
	name = 1050062
	branchid = 1051328
	chainage = 4.491
	allowedFlowDir = both
	leftLevel = 17.9
	rightLevel = 17.87
	csDefId = 1050062
	length = 9.97
	inletLossCoeff = 1.0
	outletLossCoeff = 1.0
	valveOnOff = 0
	numLossCoeff = 0
	bedFrictionType = Strickler
	bedFriction = 75.0

[Structure]
	type = culvert
	id = 1050279
	name = 1050279
	branchid = 1057130
	chainage = 7.67
	allowedFlowDir = both
	leftLevel = 14.48
	rightLevel = 14.5
	csDefId = 1050279
	length = 15.34
	inletLossCoeff = 1.0
	outletLossCoeff = 1.0
	valveOnOff = 0
	numLossCoeff = 0
	bedFrictionType = Strickler
	bedFriction = 75.0

[Structure]
	type = culvert
	id = 1050292
	name = 1050292
	branchid = 1057510
	chainage = 87.62
	allowedFlowDir = both
	leftLevel = 15.73
	rightLevel = 15.72
	csDefId = 1050292
	length = 9.29
	inletLossCoeff = 1.0
	outletLossCoeff = 1.0
	valveOnOff = 0
	numLossCoeff = 0
	bedFrictionType = Strickler
	bedFriction = 75.0

[Structure]
	type = culvert
	id = 1050241
	name = 1050241
	branchid = 1055640
	chainage = 88.979
	allowedFlowDir = both
	leftLevel = 15.22
	rightLevel = 15.2
	csDefId = 1050241
	length = 4.54
	inletLossCoeff = 1.0
	outletLossCoeff = 1.0
	valveOnOff = 0
	numLossCoeff = 0
	bedFrictionType = Strickler
	bedFriction = 75.0

[Structure]
	type = culvert
	id = 1050265
	name = 1050265
	branchid = 1055980
	chainage = 15.517
	allowedFlowDir = both
	leftLevel = 12.96
	rightLevel = 12.95
	csDefId = 1050265
	length = 12.25
	inletLossCoeff = 1.0
	outletLossCoeff = 1.0
	valveOnOff = 0
	numLossCoeff = 0
	bedFrictionType = Strickler
	bedFriction = 30.0

[Structure]
	type = culvert
	id = 1050295
	name = 1050295
	branchid = 1057520
	chainage = 119.649
	allowedFlowDir = both
	leftLevel = 15.55
	rightLevel = 15.49
	csDefId = 1050295
	length = 3.49
	inletLossCoeff = 1.0
	outletLossCoeff = 1.0
	valveOnOff = 0
	numLossCoeff = 0
	bedFrictionType = Strickler
	bedFriction = 75.0

[Structure]
	type = culvert
	id = 1050151
	name = 1050151
	branchid = 1052610
	chainage = 83.543
	allowedFlowDir = both
	leftLevel = 16.23
	rightLevel = 16.2
	csDefId = 1050151
	length = 6.38
	inletLossCoeff = 1.0
	outletLossCoeff = 1.0
	valveOnOff = 0
	numLossCoeff = 0
	bedFrictionType = Strickler
	bedFriction = 75.0

[Structure]
	type = culvert
	id = 1050300
	name = 1050300
	branchid = 1057590
	chainage = 126.678
	allowedFlowDir = both
	leftLevel = 11.92
	rightLevel = 11.94
	csDefId = 1050300
	length = 7.45
	inletLossCoeff = 1.0
	outletLossCoeff = 1.0
	valveOnOff = 0
	numLossCoeff = 0
	bedFrictionType = Strickler
	bedFriction = 75.0

[Structure]
	type = culvert
	id = 1050304
	name = 1050304
	branchid = 1057640
	chainage = 104.817
	allowedFlowDir = both
	leftLevel = 9.63
	rightLevel = 9.61
	csDefId = 1050304
	length = 7.41
	inletLossCoeff = 1.0
	outletLossCoeff = 1.0
	valveOnOff = 0
	numLossCoeff = 0
	bedFrictionType = Strickler
	bedFriction = 75.0

[Structure]
	type = culvert
	id = 1050235
	name = 1050235
	branchid = 1055430
	chainage = 30.011
	allowedFlowDir = both
	leftLevel = 16.14
	rightLevel = 16.11
	csDefId = 1050235
	length = 8.66
	inletLossCoeff = 1.0
	outletLossCoeff = 1.0
	valveOnOff = 0
	numLossCoeff = 0
	bedFrictionType = Strickler
	bedFriction = 75.0

[Structure]
	type = culvert
	id = 1050242
	name = 1050242
	branchid = 1055710
	chainage = 4.3
	allowedFlowDir = both
	leftLevel = 15.68
	rightLevel = 15.59
	csDefId = 1050242
	length = 6.16
	inletLossCoeff = 1.0
	outletLossCoeff = 1.0
	valveOnOff = 0
	numLossCoeff = 0
	bedFrictionType = Strickler
	bedFriction = 75.0

[Structure]
	type = culvert
	id = 1050266
	name = 1050266
	branchid = 1056090
	chainage = 109.432
	allowedFlowDir = both
	leftLevel = 8.89
	rightLevel = 8.96
	csDefId = 1050266
	length = 20.77
	inletLossCoeff = 1.0
	outletLossCoeff = 1.0
	valveOnOff = 0
	numLossCoeff = 0
	bedFrictionType = Strickler
	bedFriction = 30.0

[Structure]
	type = culvert
	id = 1050024
	name = 1050024
	branchid = 1050620
	chainage = 118.622
	allowedFlowDir = both
	leftLevel = 15.96
	rightLevel = 16.09
	csDefId = 1050024
	length = 13.48
	inletLossCoeff = 1.0
	outletLossCoeff = 1.0
	valveOnOff = 0
	numLossCoeff = 0
	bedFrictionType = Strickler
	bedFriction = 75.0

[Structure]
	type = culvert
	id = 1050055
	name = 1050055
	branchid = 1057860
	chainage = 182.529
	allowedFlowDir = both
	leftLevel = 17.66
	rightLevel = 17.64
	csDefId = 1050055
	length = 10.07
	inletLossCoeff = 1.0
	outletLossCoeff = 1.0
	valveOnOff = 0
	numLossCoeff = 0
	bedFrictionType = Strickler
	bedFriction = 75.0

[Structure]
	type = culvert
	id = 1050181
	name = 1050181
	branchid = 1053510
	chainage = 5.874
	allowedFlowDir = both
	leftLevel = 14.91
	rightLevel = 14.9
	csDefId = 1050181
	length = 10.33
	inletLossCoeff = 1.0
	outletLossCoeff = 1.0
	valveOnOff = 0
	numLossCoeff = 0
	bedFrictionType = Strickler
	bedFriction = 75.0

[Structure]
	type = culvert
	id = 1050229
	name = 1050229
	branchid = 1055330
	chainage = 291.863
	allowedFlowDir = both
	leftLevel = 15.63
	rightLevel = 15.53
	csDefId = 1050229
	length = 8.7
	inletLossCoeff = 1.0
	outletLossCoeff = 1.0
	valveOnOff = 0
	numLossCoeff = 0
	bedFrictionType = Strickler
	bedFriction = 75.0

[Structure]
	type = culvert
	id = 1050057
	name = 1050057
	branchid = 1051150
	chainage = 265.241
	allowedFlowDir = both
	leftLevel = 17.56
	rightLevel = 17.72
	csDefId = 1050057
	length = 9.8
	inletLossCoeff = 1.0
	outletLossCoeff = 1.0
	valveOnOff = 0
	numLossCoeff = 0
	bedFrictionType = Strickler
	bedFriction = 75.0

[Structure]
	type = culvert
	id = 1050215
	name = 1050215
	branchid = 1055110
	chainage = 6.457
	allowedFlowDir = both
	leftLevel = 17.21
	rightLevel = 17.17
	csDefId = 1050215
	length = 12.26
	inletLossCoeff = 1.0
	outletLossCoeff = 1.0
	valveOnOff = 0
	numLossCoeff = 0
	bedFrictionType = Strickler
	bedFriction = 75.0

[Structure]
	type = culvert
	id = 1050273
	name = 1050273
	branchid = 1057020
	chainage = 260.705
	allowedFlowDir = both
	leftLevel = 14.97
	rightLevel = 14.93
	csDefId = 1050273
	length = 9.8
	inletLossCoeff = 1.0
	outletLossCoeff = 1.0
	valveOnOff = 0
	numLossCoeff = 0
	bedFrictionType = Strickler
	bedFriction = 75.0

[Structure]
	type = culvert
	id = 1050066
	name = 1050066
	branchid = 1051330
	chainage = 71.989
	allowedFlowDir = both
	leftLevel = 17.41
	rightLevel = 17.37
	csDefId = 1050066
	length = 9.83
	inletLossCoeff = 1.0
	outletLossCoeff = 1.0
	valveOnOff = 0
	numLossCoeff = 0
	bedFrictionType = Strickler
	bedFriction = 75.0

[Structure]
	type = culvert
	id = 1050321
	name = 1050321
	branchid = 1051330
	chainage = 209.62
	allowedFlowDir = both
	leftLevel = 17.33
	rightLevel = 17.33
	csDefId = 1050321
	length = 7.29
	inletLossCoeff = 1.0
	outletLossCoeff = 1.0
	valveOnOff = 0
	numLossCoeff = 0
	bedFrictionType = Strickler
	bedFriction = 75.0

[Structure]
	type = culvert
	id = 1050054
	name = 1050054
	branchid = 1057860
	chainage = 117.113
	allowedFlowDir = both
	leftLevel = 18.09
	rightLevel = 18.13
	csDefId = 1050054
	length = 7.38
	inletLossCoeff = 1.0
	outletLossCoeff = 1.0
	valveOnOff = 0
	numLossCoeff = 0
	bedFrictionType = Strickler
	bedFriction = 75.0

[Structure]
	type = culvert
	id = 1050335
	name = 1050335
	branchid = 1055630
	chainage = 57.073
	allowedFlowDir = both
	leftLevel = 15.19
	rightLevel = 15.23
	csDefId = 1050335
	length = 9.85
	inletLossCoeff = 1.0
	outletLossCoeff = 1.0
	valveOnOff = 0
	numLossCoeff = 0
	bedFrictionType = Strickler
	bedFriction = 75.0

[Structure]
	type = culvert
	id = 1050330
	name = 1050330
	branchid = 1055070
	chainage = 274.771
	allowedFlowDir = both
	leftLevel = 18.24
	rightLevel = 18.36
	csDefId = 1050330
	length = 7.73
	inletLossCoeff = 1.0
	outletLossCoeff = 1.0
	valveOnOff = 0
	numLossCoeff = 0
	bedFrictionType = Strickler
	bedFriction = 75.0

[Structure]
	type = culvert
	id = 1050112
	name = 1050112
	branchid = 1052050
	chainage = 75.434
	allowedFlowDir = both
	leftLevel = 18.5
	rightLevel = 18.47
	csDefId = 1050112
	length = 13.53
	inletLossCoeff = 1.0
	outletLossCoeff = 1.0
	valveOnOff = 0
	numLossCoeff = 0
	bedFrictionType = Strickler
	bedFriction = 75.0

[Structure]
	type = culvert
	id = 1050259
	name = 1050259
	branchid = 1055935
	chainage = 155.474
	allowedFlowDir = both
	leftLevel = 15.18
	rightLevel = 15.2
	csDefId = 1050259
	length = 1.05
	inletLossCoeff = 1.0
	outletLossCoeff = 1.0
	valveOnOff = 0
	numLossCoeff = 0
	bedFrictionType = Strickler
	bedFriction = 75.0

[Structure]
	type = culvert
	id = 1050103
	name = 1050103
	branchid = 1052020
	chainage = 168.795
	allowedFlowDir = both
	leftLevel = 19.03
	rightLevel = 19.01
	csDefId = 1050103
	length = 8.33
	inletLossCoeff = 1.0
	outletLossCoeff = 1.0
	valveOnOff = 0
	numLossCoeff = 0
	bedFrictionType = Strickler
	bedFriction = 75.0

[Structure]
	type = culvert
	id = 1050078
	name = 1050078
	branchid = 1051370
	chainage = 329.455
	allowedFlowDir = both
	leftLevel = 15.67
	rightLevel = 15.85
	csDefId = 1050078
	length = 7.13
	inletLossCoeff = 1.0
	outletLossCoeff = 1.0
	valveOnOff = 0
	numLossCoeff = 0
	bedFrictionType = Strickler
	bedFriction = 75.0

[Structure]
	type = culvert
	id = 1050035
	name = 1050035
	branchid = 1051050
	chainage = 44.551
	allowedFlowDir = both
	leftLevel = 19.23
	rightLevel = 19.19
	csDefId = 1050035
	length = 8.41
	inletLossCoeff = 1.0
	outletLossCoeff = 1.0
	valveOnOff = 0
	numLossCoeff = 0
	bedFrictionType = Strickler
	bedFriction = 75.0

[Structure]
	type = culvert
	id = 1050072
	name = 1050072
	branchid = 1051340
	chainage = 340.733
	allowedFlowDir = both
	leftLevel = 16.54
	rightLevel = 16.54
	csDefId = 1050072
	length = 12.54
	inletLossCoeff = 1.0
	outletLossCoeff = 1.0
	valveOnOff = 0
	numLossCoeff = 0
	bedFrictionType = Strickler
	bedFriction = 75.0

[Structure]
	type = culvert
	id = 1050074
	name = 1050074
	branchid = 1051360
	chainage = 42.301
	allowedFlowDir = both
	leftLevel = 16.42
	rightLevel = 16.42
	csDefId = 1050074
	length = 12.28
	inletLossCoeff = 1.0
	outletLossCoeff = 1.0
	valveOnOff = 0
	numLossCoeff = 0
	bedFrictionType = Strickler
	bedFriction = 75.0

[Structure]
	type = culvert
	id = 1050143
	name = 1050143
	branchid = 1052490
	chainage = 95.313
	allowedFlowDir = both
	leftLevel = 16.03
	rightLevel = 16.04
	csDefId = 1050143
	length = 54.09
	inletLossCoeff = 1.0
	outletLossCoeff = 1.0
	valveOnOff = 0
	numLossCoeff = 0
	bedFrictionType = Strickler
	bedFriction = 75.0

[Structure]
	type = culvert
	id = 1050175
	name = 1050175
	branchid = 1053180
	chainage = 182.262
	allowedFlowDir = both
	leftLevel = 14.88
	rightLevel = 14.96
	csDefId = 1050175
	length = 12.23
	inletLossCoeff = 1.0
	outletLossCoeff = 1.0
	valveOnOff = 0
	numLossCoeff = 0
	bedFrictionType = Strickler
	bedFriction = 75.0

[Structure]
	type = culvert
	id = 1050025
	name = 1050025
	branchid = 1050630
	chainage = 77.861
	allowedFlowDir = both
	leftLevel = 16.1
	rightLevel = 16.1
	csDefId = 1050025
	length = 7.43
	inletLossCoeff = 1.0
	outletLossCoeff = 1.0
	valveOnOff = 0
	numLossCoeff = 0
	bedFrictionType = Strickler
	bedFriction = 75.0

[Structure]
	type = culvert
	id = 1050010
	name = 1050010
	branchid = 1050510
	chainage = 183.578
	allowedFlowDir = both
	leftLevel = 16.47
	rightLevel = 16.47
	csDefId = 1050010
	length = 7.85
	inletLossCoeff = 1.0
	outletLossCoeff = 1.0
	valveOnOff = 0
	numLossCoeff = 0
	bedFrictionType = Strickler
	bedFriction = 75.0

[Structure]
	type = culvert
	id = 1050162
	name = 1050162
	branchid = 1052810
	chainage = 111.871
	allowedFlowDir = both
	leftLevel = 15.95
	rightLevel = 15.98
	csDefId = 1050162
	length = 10.84
	inletLossCoeff = 1.0
	outletLossCoeff = 1.0
	valveOnOff = 0
	numLossCoeff = 0
	bedFrictionType = Strickler
	bedFriction = 75.0

[Structure]
	type = culvert
	id = 1050214
	name = 1050214
	branchid = 1055090
	chainage = 907.916
	allowedFlowDir = both
	leftLevel = 16.85
	rightLevel = 16.87
	csDefId = 1050214
	length = 22.55
	inletLossCoeff = 1.0
	outletLossCoeff = 1.0
	valveOnOff = 0
	numLossCoeff = 0
	bedFrictionType = Strickler
	bedFriction = 75.0

[Structure]
	type = culvert
	id = 1050164
	name = 1050164
	branchid = 1052930
	chainage = 5.532
	allowedFlowDir = both
	leftLevel = 15.96
	rightLevel = 15.95
	csDefId = 1050164
	length = 8.78
	inletLossCoeff = 1.0
	outletLossCoeff = 1.0
	valveOnOff = 0
	numLossCoeff = 0
	bedFrictionType = Strickler
	bedFriction = 75.0

[Structure]
	type = culvert
	id = 1050171
	name = 1050171
	branchid = 1053020
	chainage = 322.646
	allowedFlowDir = both
	leftLevel = 15.51
	rightLevel = 15.54
	csDefId = 1050171
	length = 14.91
	inletLossCoeff = 1.0
	outletLossCoeff = 1.0
	valveOnOff = 0
	numLossCoeff = 0
	bedFrictionType = Strickler
	bedFriction = 75.0

[Structure]
	type = culvert
	id = 1050195
	name = 1050195
	branchid = 1054120
	chainage = 218.251
	allowedFlowDir = both
	leftLevel = 15.03
	rightLevel = 15.04
	csDefId = 1050195
	length = 7.36
	inletLossCoeff = 1.0
	outletLossCoeff = 1.0
	valveOnOff = 0
	numLossCoeff = 0
	bedFrictionType = Strickler
	bedFriction = 75.0

[Structure]
	type = culvert
	id = 1050198
	name = 1050198
	branchid = 1054245
	chainage = 142.973
	allowedFlowDir = both
	leftLevel = 13.84
	rightLevel = 13.84
	csDefId = 1050198
	length = 10.5
	inletLossCoeff = 1.0
	outletLossCoeff = 1.0
	valveOnOff = 0
	numLossCoeff = 0
	bedFrictionType = Strickler
	bedFriction = 75.0

[Structure]
	type = culvert
	id = 1050213
	name = 1050213
	branchid = 1055080
	chainage = 227.653
	allowedFlowDir = both
	leftLevel = 17.98
	rightLevel = 17.97
	csDefId = 1050213
	length = 6.28
	inletLossCoeff = 1.0
	outletLossCoeff = 1.0
	valveOnOff = 0
	numLossCoeff = 0
	bedFrictionType = Strickler
	bedFriction = 75.0

[Structure]
	type = culvert
	id = 1050217
	name = 1050217
	branchid = 1055130
	chainage = 13.981
	allowedFlowDir = both
	leftLevel = 16.83
	rightLevel = 16.84
	csDefId = 1050217
	length = 19.62
	inletLossCoeff = 1.0
	outletLossCoeff = 1.0
	valveOnOff = 0
	numLossCoeff = 0
	bedFrictionType = Strickler
	bedFriction = 75.0

[Structure]
	type = culvert
	id = 1050254
	name = 1050254
	branchid = 1055920
	chainage = 125.758
	allowedFlowDir = both
	leftLevel = 15.75
	rightLevel = 15.85
	csDefId = 1050254
	length = 5.25
	inletLossCoeff = 1.0
	outletLossCoeff = 1.0
	valveOnOff = 0
	numLossCoeff = 0
	bedFrictionType = Strickler
	bedFriction = 75.0

[Structure]
	type = culvert
	id = 1050281
	name = 1050281
	branchid = 1057150
	chainage = 17.707
	allowedFlowDir = both
	leftLevel = 14.29
	rightLevel = 14.46
	csDefId = 1050281
	length = 10.78
	inletLossCoeff = 1.0
	outletLossCoeff = 1.0
	valveOnOff = 0
	numLossCoeff = 0
	bedFrictionType = Strickler
	bedFriction = 75.0

[Structure]
	type = culvert
	id = 1050302
	name = 1050302
	branchid = 1057600
	chainage = 79.453
	allowedFlowDir = both
	leftLevel = 11.6
	rightLevel = 11.68
	csDefId = 1050302
	length = 9.85
	inletLossCoeff = 1.0
	outletLossCoeff = 1.0
	valveOnOff = 0
	numLossCoeff = 0
	bedFrictionType = Strickler
	bedFriction = 75.0

[Structure]
	type = culvert
	id = 1050303
	name = 1050303
	branchid = 1057620
	chainage = 84.506
	allowedFlowDir = both
	leftLevel = 10.09
	rightLevel = 9.97
	csDefId = 1050303
	length = 12.52
	inletLossCoeff = 1.0
	outletLossCoeff = 1.0
	valveOnOff = 0
	numLossCoeff = 0
	bedFrictionType = Strickler
	bedFriction = 75.0

[Structure]
	type = culvert
	id = 1050014
	name = 1050014
	branchid = 1050510
	chainage = 566.45
	allowedFlowDir = both
	leftLevel = 16.42
	rightLevel = 16.43
	csDefId = 1050014
	length = 7.33
	inletLossCoeff = 1.0
	outletLossCoeff = 1.0
	valveOnOff = 0
	numLossCoeff = 0
	bedFrictionType = Strickler
	bedFriction = 75.0

[Structure]
	type = culvert
	id = 1050058
	name = 1050058
	branchid = 1051240
	chainage = 286.629
	allowedFlowDir = both
	leftLevel = 17.0
	rightLevel = 17.03
	csDefId = 1050058
	length = 9.99
	inletLossCoeff = 1.0
	outletLossCoeff = 1.0
	valveOnOff = 0
	numLossCoeff = 0
	bedFrictionType = Strickler
	bedFriction = 75.0

[Structure]
	type = culvert
	id = 1050163
	name = 1050163
	branchid = 1052810
	chainage = 291.143
	allowedFlowDir = both
	leftLevel = 15.86
	rightLevel = 15.66
	csDefId = 1050163
	length = 54.95
	inletLossCoeff = 1.0
	outletLossCoeff = 1.0
	valveOnOff = 0
	numLossCoeff = 0
	bedFrictionType = Strickler
	bedFriction = 30.0

[Structure]
	type = culvert
	id = 1050365
	name = 1050365
	branchid = 1050630
	chainage = 246.039
	allowedFlowDir = both
	leftLevel = 15.74
	rightLevel = 15.8
	csDefId = 1050365
	length = 10.2
	inletLossCoeff = 1.0
	outletLossCoeff = 1.0
	valveOnOff = 0
	numLossCoeff = 0
	bedFrictionType = Strickler
	bedFriction = 75.0

[Structure]
	type = culvert
	id = 1050123
	name = 1050123
	branchid = 1052180
	chainage = 8.709
	allowedFlowDir = both
	leftLevel = 18.1
	rightLevel = 18.0
	csDefId = 1050123
	length = 14.76
	inletLossCoeff = 1.0
	outletLossCoeff = 1.0
	valveOnOff = 0
	numLossCoeff = 0
	bedFrictionType = Strickler
	bedFriction = 75.0

[Structure]
	type = culvert
	id = 1050036
	name = 1050036
	branchid = 1051050
	chainage = 314.514
	allowedFlowDir = both
	leftLevel = 19.15
	rightLevel = 19.18
	csDefId = 1050036
	length = 12.38
	inletLossCoeff = 1.0
	outletLossCoeff = 1.0
	valveOnOff = 0
	numLossCoeff = 0
	bedFrictionType = Strickler
	bedFriction = 75.0

[Structure]
	type = culvert
	id = 1050173
	name = 1050173
	branchid = 1053150
	chainage = 223.507
	allowedFlowDir = both
	leftLevel = 15.66
	rightLevel = 15.64
	csDefId = 1050173
	length = 24.81
	inletLossCoeff = 1.0
	outletLossCoeff = 1.0
	valveOnOff = 0
	numLossCoeff = 0
	bedFrictionType = Strickler
	bedFriction = 75.0

[Structure]
	type = culvert
	id = 1050185
	name = 1050185
	branchid = 1054010
	chainage = 150.753
	allowedFlowDir = both
	leftLevel = 18.99
	rightLevel = 19.0
	csDefId = 1050185
	length = 7.66
	inletLossCoeff = 1.0
	outletLossCoeff = 1.0
	valveOnOff = 0
	numLossCoeff = 0
	bedFrictionType = Strickler
	bedFriction = 75.0

[Structure]
	type = culvert
	id = 1050232
	name = 1050232
	branchid = 1055410
	chainage = 401.729
	allowedFlowDir = both
	leftLevel = 16.56
	rightLevel = 16.57
	csDefId = 1050232
	length = 27.06
	inletLossCoeff = 1.0
	outletLossCoeff = 1.0
	valveOnOff = 0
	numLossCoeff = 0
	bedFrictionType = Strickler
	bedFriction = 75.0

[Structure]
	type = culvert
	id = 1050246
	name = 1050246
	branchid = 1055820
	chainage = 374.234
	allowedFlowDir = both
	leftLevel = 15.91
	rightLevel = 15.91
	csDefId = 1050246
	length = 12.74
	inletLossCoeff = 1.0
	outletLossCoeff = 1.0
	valveOnOff = 0
	numLossCoeff = 0
	bedFrictionType = Strickler
	bedFriction = 75.0

[Structure]
	type = culvert
	id = 1050250
	name = 1050250
	branchid = 1055850
	chainage = 11.441
	allowedFlowDir = both
	leftLevel = 15.03
	rightLevel = 15.01
	csDefId = 1050250
	length = 19.46
	inletLossCoeff = 1.0
	outletLossCoeff = 1.0
	valveOnOff = 0
	numLossCoeff = 0
	bedFrictionType = Strickler
	bedFriction = 75.0

[Structure]
	type = culvert
	id = 1050283
	name = 1050283
	branchid = 1057310
	chainage = 5.59
	allowedFlowDir = both
	leftLevel = 15.15
	rightLevel = 15.1
	csDefId = 1050283
	length = 6.4
	inletLossCoeff = 1.0
	outletLossCoeff = 1.0
	valveOnOff = 0
	numLossCoeff = 0
	bedFrictionType = Strickler
	bedFriction = 75.0

[Structure]
	type = culvert
	id = 1050309
	name = 1050309
	branchid = 1057700
	chainage = 88.063
	allowedFlowDir = both
	leftLevel = 8.79
	rightLevel = 8.81
	csDefId = 1050309
	length = 14.32
	inletLossCoeff = 1.0
	outletLossCoeff = 1.0
	valveOnOff = 0
	numLossCoeff = 0
	bedFrictionType = Strickler
	bedFriction = 75.0

[Structure]
	type = culvert
	id = 1050243
	name = 1050243
	branchid = 1055720
	chainage = 88.21
	allowedFlowDir = both
	leftLevel = 15.17
	rightLevel = 15.17
	csDefId = 1050243
	length = 5.5
	inletLossCoeff = 1.0
	outletLossCoeff = 1.0
	valveOnOff = 0
	numLossCoeff = 0
	bedFrictionType = Strickler
	bedFriction = 75.0

[Structure]
	type = culvert
	id = 1050282
	name = 1050282
	branchid = 1057220
	chainage = 205.346
	allowedFlowDir = both
	leftLevel = 14.45
	rightLevel = 14.43
	csDefId = 1050282
	length = 9.34
	inletLossCoeff = 1.0
	outletLossCoeff = 1.0
	valveOnOff = 0
	numLossCoeff = 0
	bedFrictionType = Strickler
	bedFriction = 75.0

[Structure]
	type = culvert
	id = 1050168
	name = 1050168
	branchid = 1052950
	chainage = 290.901
	allowedFlowDir = both
	leftLevel = 15.23
	rightLevel = 15.13
	csDefId = 1050168
	length = 13.11
	inletLossCoeff = 1.0
	outletLossCoeff = 1.0
	valveOnOff = 0
	numLossCoeff = 0
	bedFrictionType = Strickler
	bedFriction = 75.0

[Structure]
	type = culvert
	id = 1050174
	name = 1050174
	branchid = 1053160
	chainage = 54.04
	allowedFlowDir = both
	leftLevel = 15.59
	rightLevel = 15.54
	csDefId = 1050174
	length = 12.69
	inletLossCoeff = 1.0
	outletLossCoeff = 1.0
	valveOnOff = 0
	numLossCoeff = 0
	bedFrictionType = Strickler
	bedFriction = 75.0

[Structure]
	type = culvert
	id = 1050291
	name = 1050291
	branchid = 1057420
	chainage = 278.167
	allowedFlowDir = both
	leftLevel = 8.63
	rightLevel = 8.63
	csDefId = 1050291
	length = 7.62
	inletLossCoeff = 1.0
	outletLossCoeff = 1.0
	valveOnOff = 0
	numLossCoeff = 0
	bedFrictionType = Strickler
	bedFriction = 75.0

[Structure]
	type = culvert
	id = 1050377
	name = 1050377
	branchid = 1057520
	chainage = 326.243
	allowedFlowDir = both
	leftLevel = 15.27
	rightLevel = 15.31
	csDefId = 1050377
	length = 17.93
	inletLossCoeff = 1.0
	outletLossCoeff = 1.0
	valveOnOff = 0
	numLossCoeff = 0
	bedFrictionType = Strickler
	bedFriction = 75.0

[Structure]
	type = culvert
	id = 1050380
	name = 1050380
	branchid = 1057700
	chainage = 1.703
	allowedFlowDir = both
	leftLevel = 9.61
	rightLevel = 9.64
	csDefId = 1050380
	length = 2.52
	inletLossCoeff = 1.0
	outletLossCoeff = 1.0
	valveOnOff = 0
	numLossCoeff = 0
	bedFrictionType = Strickler
	bedFriction = 75.0

[Structure]
	type = culvert
	id = 1050382
	name = 1050382
	branchid = 1052765
	chainage = 137.237
	allowedFlowDir = both
	leftLevel = 16.58
	rightLevel = 16.55
	csDefId = 1050382
	length = 12.18
	inletLossCoeff = 1.0
	outletLossCoeff = 1.0
	valveOnOff = 0
	numLossCoeff = 0
	bedFrictionType = Strickler
	bedFriction = 75.0

[Structure]
	type = culvert
	id = 1050157
	name = 1050157
	branchid = 1052750
	chainage = 3.048
	allowedFlowDir = both
	leftLevel = 16.95
	rightLevel = 17.06
	csDefId = 1050157
	length = 4.96
	inletLossCoeff = 1.0
	outletLossCoeff = 1.0
	valveOnOff = 0
	numLossCoeff = 0
	bedFrictionType = Strickler
	bedFriction = 75.0

[Structure]
	type = culvert
	id = 1050286
	name = 1050286
	branchid = 1057360
	chainage = 56.502
	allowedFlowDir = both
	leftLevel = 11.34
	rightLevel = 11.34
	csDefId = 1050286
	length = 7.16
	inletLossCoeff = 1.0
	outletLossCoeff = 1.0
	valveOnOff = 0
	numLossCoeff = 0
	bedFrictionType = Strickler
	bedFriction = 75.0

[Structure]
	type = culvert
	id = 1050298
	name = 1050298
	branchid = 1057560
	chainage = 269.874
	allowedFlowDir = both
	leftLevel = 13.2
	rightLevel = 13.23
	csDefId = 1050298
	length = 9.92
	inletLossCoeff = 1.0
	outletLossCoeff = 1.0
	valveOnOff = 0
	numLossCoeff = 0
	bedFrictionType = Strickler
	bedFriction = 75.0

[Structure]
	type = culvert
	id = 1050306
	name = 1050306
	branchid = 1057650
	chainage = 227.715
	allowedFlowDir = both
	leftLevel = 8.83
	rightLevel = 8.88
	csDefId = 1050306
	length = 7.46
	inletLossCoeff = 1.0
	outletLossCoeff = 1.0
	valveOnOff = 0
	numLossCoeff = 0
	bedFrictionType = Strickler
	bedFriction = 75.0

[Structure]
	type = culvert
	id = 1050419
	name = 1050419
	branchid = 1057870
	chainage = 196.899
	allowedFlowDir = both
	leftLevel = 18.97
	rightLevel = 19.01
	csDefId = 1050419
	length = 2.34
	inletLossCoeff = 1.0
	outletLossCoeff = 1.0
	valveOnOff = 0
	numLossCoeff = 0
	bedFrictionType = Strickler
	bedFriction = 75.0

[Structure]
	type = culvert
	id = 1050366
	name = 1050366
	branchid = 1055130
	chainage = 1.762
	allowedFlowDir = both
	leftLevel = 16.76
	rightLevel = 16.83
	csDefId = 1050366
	length = 3.52
	inletLossCoeff = 1.0
	outletLossCoeff = 1.0
	valveOnOff = 0
	numLossCoeff = 0
	bedFrictionType = Strickler
	bedFriction = 75.0

[Structure]
	type = culvert
	id = 1050411
	name = 1050411
	branchid = 1057730
	chainage = 29.118
	allowedFlowDir = both
	leftLevel = 8.45
	rightLevel = 8.46
	csDefId = 1050411
	length = 7.68
	inletLossCoeff = 1.0
	outletLossCoeff = 1.0
	valveOnOff = 0
	numLossCoeff = 0
	bedFrictionType = Strickler
	bedFriction = 75.0

[Structure]
	type = culvert
	id = 1050341
	name = 1050341
	branchid = 1050535
	chainage = 354.392
	allowedFlowDir = both
	leftLevel = 16.5
	rightLevel = 16.57
	csDefId = 1050341
	length = 11.16
	inletLossCoeff = 1.0
	outletLossCoeff = 1.0
	valveOnOff = 0
	numLossCoeff = 0
	bedFrictionType = Strickler
	bedFriction = 75.0

[Structure]
	type = culvert
	id = 1050343
	name = 1050343
	branchid = 1050550
	chainage = 4.233
	allowedFlowDir = both
	leftLevel = 16.34
	rightLevel = 16.4
	csDefId = 1050343
	length = 7.34
	inletLossCoeff = 1.0
	outletLossCoeff = 1.0
	valveOnOff = 0
	numLossCoeff = 0
	bedFrictionType = Strickler
	bedFriction = 75.0

[Structure]
	type = culvert
	id = 1050348
	name = 1050348
	branchid = 1051150
	chainage = 30.131
	allowedFlowDir = both
	leftLevel = 17.9
	rightLevel = 17.89
	csDefId = 1050348
	length = 2.09
	inletLossCoeff = 1.0
	outletLossCoeff = 1.0
	valveOnOff = 0
	numLossCoeff = 0
	bedFrictionType = Strickler
	bedFriction = 90.0

[Structure]
	type = culvert
	id = 1050389
	name = 1050389
	branchid = 1051620
	chainage = 5.056
	allowedFlowDir = both
	leftLevel = 15.74
	rightLevel = 15.76
	csDefId = 1050389
	length = 7.37
	inletLossCoeff = 1.0
	outletLossCoeff = 1.0
	valveOnOff = 0
	numLossCoeff = 0
	bedFrictionType = Strickler
	bedFriction = 75.0

[Structure]
	type = culvert
	id = 1050106
	name = 1050106
	branchid = 1052020
	chainage = 233.035
	allowedFlowDir = both
	leftLevel = 18.92
	rightLevel = 18.97
	csDefId = 1050106
	length = 12.32
	inletLossCoeff = 1.0
	outletLossCoeff = 1.0
	valveOnOff = 0
	numLossCoeff = 0
	bedFrictionType = Strickler
	bedFriction = 75.0

[Structure]
	type = culvert
	id = 1050145
	name = 1050145
	branchid = 1052490
	chainage = 187.159
	allowedFlowDir = both
	leftLevel = 16.04
	rightLevel = 16.08
	csDefId = 1050145
	length = 10.34
	inletLossCoeff = 1.0
	outletLossCoeff = 1.0
	valveOnOff = 0
	numLossCoeff = 0
	bedFrictionType = Strickler
	bedFriction = 75.0

[Structure]
	type = culvert
	id = 1050312
	name = 1050312
	branchid = 1057750
	chainage = 32.471
	allowedFlowDir = both
	leftLevel = 7.6
	rightLevel = 7.6
	csDefId = 1050312
	length = 15.67
	inletLossCoeff = 1.0
	outletLossCoeff = 1.0
	valveOnOff = 0
	numLossCoeff = 0
	bedFrictionType = Strickler
	bedFriction = 75.0

[Structure]
	type = culvert
	id = 1050220
	name = 1050220
	branchid = 1055140
	chainage = 94.629
	allowedFlowDir = both
	leftLevel = 16.39
	rightLevel = 16.44
	csDefId = 1050220
	length = 8.34
	inletLossCoeff = 1.0
	outletLossCoeff = 1.0
	valveOnOff = 0
	numLossCoeff = 0
	bedFrictionType = Strickler
	bedFriction = 75.0

[Structure]
	type = culvert
	id = 1050288
	name = 1050288
	branchid = 1057380
	chainage = 104.435
	allowedFlowDir = both
	leftLevel = 10.21
	rightLevel = 10.16
	csDefId = 1050288
	length = 7.77
	inletLossCoeff = 1.0
	outletLossCoeff = 1.0
	valveOnOff = 0
	numLossCoeff = 0
	bedFrictionType = Strickler
	bedFriction = 75.0

[Structure]
	type = culvert
	id = 1050299
	name = 1050299
	branchid = 1057580
	chainage = 10.111
	allowedFlowDir = both
	leftLevel = 12.6
	rightLevel = 12.63
	csDefId = 1050299
	length = 9.91
	inletLossCoeff = 1.0
	outletLossCoeff = 1.0
	valveOnOff = 0
	numLossCoeff = 0
	bedFrictionType = Strickler
	bedFriction = 75.0

[Structure]
	type = culvert
	id = 1050006
	name = 1050006
	branchid = 1050150
	chainage = 262.203
	allowedFlowDir = both
	leftLevel = 16.44
	rightLevel = 16.51
	csDefId = 1050006
	length = 12.38
	inletLossCoeff = 1.0
	outletLossCoeff = 1.0
	valveOnOff = 0
	numLossCoeff = 0
	bedFrictionType = Strickler
	bedFriction = 75.0

[Structure]
	type = culvert
	id = 1050109
	name = 1050109
	branchid = 1052040
	chainage = 24.992
	allowedFlowDir = both
	leftLevel = 18.5
	rightLevel = 18.31
	csDefId = 1050109
	length = 48.52
	inletLossCoeff = 1.0
	outletLossCoeff = 1.0
	valveOnOff = 0
	numLossCoeff = 0
	bedFrictionType = Strickler
	bedFriction = 75.0

[Structure]
	type = culvert
	id = 1050236
	name = 1050236
	branchid = 1055520
	chainage = 6.817
	allowedFlowDir = both
	leftLevel = 16.05
	rightLevel = 15.99
	csDefId = 1050236
	length = 12.59
	inletLossCoeff = 1.0
	outletLossCoeff = 1.0
	valveOnOff = 0
	numLossCoeff = 0
	bedFrictionType = Strickler
	bedFriction = 75.0

[Structure]
	type = culvert
	id = 1050251
	name = 1050251
	branchid = 1055850
	chainage = 166.899
	allowedFlowDir = both
	leftLevel = 14.83
	rightLevel = 14.83
	csDefId = 1050251
	length = 10.49
	inletLossCoeff = 1.0
	outletLossCoeff = 1.0
	valveOnOff = 0
	numLossCoeff = 0
	bedFrictionType = Strickler
	bedFriction = 30.0

[Structure]
	type = culvert
	id = 1050165
	name = 1050165
	branchid = 1052930
	chainage = 40.703
	allowedFlowDir = both
	leftLevel = 15.97
	rightLevel = 16.01
	csDefId = 1050165
	length = 7.43
	inletLossCoeff = 1.0
	outletLossCoeff = 1.0
	valveOnOff = 0
	numLossCoeff = 0
	bedFrictionType = Strickler
	bedFriction = 75.0

[Structure]
	type = culvert
	id = 1050209
	name = 1050209
	branchid = 1057880
	chainage = 49.928
	allowedFlowDir = both
	leftLevel = 18.38
	rightLevel = 18.3
	csDefId = 1050209
	length = 14.85
	inletLossCoeff = 1.0
	outletLossCoeff = 1.0
	valveOnOff = 0
	numLossCoeff = 0
	bedFrictionType = Strickler
	bedFriction = 75.0

[Structure]
	type = culvert
	id = 1050226
	name = 1050226
	branchid = 1055230
	chainage = 112.024
	allowedFlowDir = both
	leftLevel = 15.84
	rightLevel = 15.82
	csDefId = 1050226
	length = 8.31
	inletLossCoeff = 1.0
	outletLossCoeff = 1.0
	valveOnOff = 0
	numLossCoeff = 0
	bedFrictionType = Strickler
	bedFriction = 75.0

[Structure]
	type = culvert
	id = 1050029
	name = 1050029
	branchid = 1051030
	chainage = 112.264
	allowedFlowDir = both
	leftLevel = 20.17
	rightLevel = 20.05
	csDefId = 1050029
	length = 4.83
	inletLossCoeff = 1.0
	outletLossCoeff = 1.0
	valveOnOff = 0
	numLossCoeff = 0
	bedFrictionType = Strickler
	bedFriction = 75.0

[Structure]
	type = culvert
	id = 1050338
	name = 1050338
	branchid = 1050510
	chainage = 382.051
	allowedFlowDir = both
	leftLevel = 16.44
	rightLevel = 16.53
	csDefId = 1050338
	length = 7.37
	inletLossCoeff = 1.0
	outletLossCoeff = 1.0
	valveOnOff = 0
	numLossCoeff = 0
	bedFrictionType = Strickler
	bedFriction = 75.0

[Structure]
	type = culvert
	id = 1050428
	name = 1050428
	branchid = 1052120
	chainage = 23.711
	allowedFlowDir = both
	leftLevel = 19.42
	rightLevel = 19.55
	csDefId = 1050428
	length = 45.87
	inletLossCoeff = 1.0
	outletLossCoeff = 1.0
	valveOnOff = 0
	numLossCoeff = 0
	bedFrictionType = Strickler
	bedFriction = 75.0

[Structure]
	type = culvert
	id = 1050425
	name = 1050425
	branchid = 1055330
	chainage = 34.871
	allowedFlowDir = both
	leftLevel = 16.01
	rightLevel = 16.01
	csDefId = 1050425
	length = 4.99
	inletLossCoeff = 1.0
	outletLossCoeff = 1.0
	valveOnOff = 0
	numLossCoeff = 0
	bedFrictionType = Strickler
	bedFriction = 75.0

[Structure]
	type = culvert
	id = 1050385
	name = 1050385
	branchid = 1052767
	chainage = 78.094
	allowedFlowDir = both
	leftLevel = 15.68
	rightLevel = 15.7
	csDefId = 1050385
	length = 7.68
	inletLossCoeff = 1.0
	outletLossCoeff = 1.0
	valveOnOff = 0
	numLossCoeff = 0
	bedFrictionType = Strickler
	bedFriction = 75.0

[Structure]
	type = culvert
	id = 1050384
	name = 1050384
	branchid = 1052767
	chainage = 57.949
	allowedFlowDir = both
	leftLevel = 16.79
	rightLevel = 15.69
	csDefId = 1050384
	length = 31.94
	inletLossCoeff = 1.0
	outletLossCoeff = 1.0
	valveOnOff = 0
	numLossCoeff = 0
	bedFrictionType = Strickler
	bedFriction = 75.0

[Structure]
	type = culvert
	id = 1050022
	name = 1050022
	branchid = 1050610
	chainage = 5.515
	allowedFlowDir = both
	leftLevel = 16.62
	rightLevel = 16.6
	csDefId = 1050022
	length = 10.48
	inletLossCoeff = 1.0
	outletLossCoeff = 1.0
	valveOnOff = 0
	numLossCoeff = 0
	bedFrictionType = Strickler
	bedFriction = 75.0

[Structure]
	type = culvert
	id = 1050113
	name = 1050113
	branchid = 1052050
	chainage = 217.873
	allowedFlowDir = both
	leftLevel = 18.3
	rightLevel = 18.32
	csDefId = 1050113
	length = 9.62
	inletLossCoeff = 1.0
	outletLossCoeff = 1.0
	valveOnOff = 0
	numLossCoeff = 0
	bedFrictionType = Strickler
	bedFriction = 75.0

[Structure]
	type = culvert
	id = 1050120
	name = 1050120
	branchid = 1052160
	chainage = 76.125
	allowedFlowDir = both
	leftLevel = 18.37
	rightLevel = 18.41
	csDefId = 1050120
	length = 5.05
	inletLossCoeff = 1.0
	outletLossCoeff = 1.0
	valveOnOff = 0
	numLossCoeff = 0
	bedFrictionType = Strickler
	bedFriction = 75.0

[Structure]
	type = culvert
	id = 1050101
	name = 1050101
	branchid = 1052020
	chainage = 65.679
	allowedFlowDir = both
	leftLevel = 19.04
	rightLevel = 19.08
	csDefId = 1050101
	length = 7.53
	inletLossCoeff = 1.0
	outletLossCoeff = 1.0
	valveOnOff = 0
	numLossCoeff = 0
	bedFrictionType = Strickler
	bedFriction = 75.0

[Structure]
	type = culvert
	id = 1050223
	name = 1050223
	branchid = 1055150
	chainage = 257.362
	allowedFlowDir = both
	leftLevel = 15.94
	rightLevel = 16.01
	csDefId = 1050223
	length = 8.36
	inletLossCoeff = 1.0
	outletLossCoeff = 1.0
	valveOnOff = 0
	numLossCoeff = 0
	bedFrictionType = Strickler
	bedFriction = 75.0

[Structure]
	type = culvert
	id = 1050261
	name = 1050261
	branchid = 1055950
	chainage = 79.976
	allowedFlowDir = both
	leftLevel = 14.29
	rightLevel = 14.29
	csDefId = 1050261
	length = 7.6
	inletLossCoeff = 1.0
	outletLossCoeff = 1.0
	valveOnOff = 0
	numLossCoeff = 0
	bedFrictionType = Strickler
	bedFriction = 30.0

[Structure]
	type = culvert
	id = 1050285
	name = 1050285
	branchid = 1057340
	chainage = 155.939
	allowedFlowDir = both
	leftLevel = 12.79
	rightLevel = 12.83
	csDefId = 1050285
	length = 7.19
	inletLossCoeff = 1.0
	outletLossCoeff = 1.0
	valveOnOff = 0
	numLossCoeff = 0
	bedFrictionType = Strickler
	bedFriction = 75.0

[Structure]
	type = culvert
	id = 1050357
	name = 1050357
	branchid = 1053220
	chainage = 196.036
	allowedFlowDir = both
	leftLevel = 14.87
	rightLevel = 14.87
	csDefId = 1050357
	length = 9.32
	inletLossCoeff = 1.0
	outletLossCoeff = 1.0
	valveOnOff = 0
	numLossCoeff = 0
	bedFrictionType = Strickler
	bedFriction = 75.0

[Structure]
	type = culvert
	id = 1050358
	name = 1050358
	branchid = 1053170
	chainage = 11.52
	allowedFlowDir = both
	leftLevel = 15.26
	rightLevel = 15.21
	csDefId = 1050358
	length = 9.17
	inletLossCoeff = 1.0
	outletLossCoeff = 1.0
	valveOnOff = 0
	numLossCoeff = 0
	bedFrictionType = Strickler
	bedFriction = 75.0

[Structure]
	type = culvert
	id = 1050361
	name = 1050361
	branchid = 1053510
	chainage = 494.957
	allowedFlowDir = both
	leftLevel = 14.59
	rightLevel = 14.56
	csDefId = 1050361
	length = 7.41
	inletLossCoeff = 1.0
	outletLossCoeff = 1.0
	valveOnOff = 0
	numLossCoeff = 0
	bedFrictionType = Strickler
	bedFriction = 75.0

[Structure]
	type = culvert
	id = 1050397
	name = 1050397
	branchid = 1054030
	chainage = 230.384
	allowedFlowDir = both
	leftLevel = 17.18
	rightLevel = 17.16
	csDefId = 1050397
	length = 11.7
	inletLossCoeff = 1.0
	outletLossCoeff = 1.0
	valveOnOff = 0
	numLossCoeff = 0
	bedFrictionType = Strickler
	bedFriction = 75.0

[Structure]
	type = culvert
	id = 1050396
	name = 1050396
	branchid = 1054030
	chainage = 191.796
	allowedFlowDir = both
	leftLevel = 17.54
	rightLevel = 17.5
	csDefId = 1050396
	length = 5.31
	inletLossCoeff = 1.0
	outletLossCoeff = 1.0
	valveOnOff = 0
	numLossCoeff = 0
	bedFrictionType = Strickler
	bedFriction = 75.0

[Structure]
	type = culvert
	id = 1050202
	name = 1050202
	branchid = 1055010
	chainage = 228.377
	allowedFlowDir = both
	leftLevel = 18.83
	rightLevel = 18.83
	csDefId = 1050202
	length = 17.62
	inletLossCoeff = 1.0
	outletLossCoeff = 1.0
	valveOnOff = 0
	numLossCoeff = 0
	bedFrictionType = Strickler
	bedFriction = 75.0

[Structure]
	type = culvert
	id = 1050102
	name = 1050102
	branchid = 1052020
	chainage = 116.566
	allowedFlowDir = both
	leftLevel = 19.01
	rightLevel = 19.07
	csDefId = 1050102
	length = 36.07
	inletLossCoeff = 1.0
	outletLossCoeff = 1.0
	valveOnOff = 0
	numLossCoeff = 0
	bedFrictionType = Strickler
	bedFriction = 75.0

[Structure]
	type = culvert
	id = 1050379
	name = 1050379
	branchid = 1053130
	chainage = 111.949
	allowedFlowDir = both
	leftLevel = 15.79
	rightLevel = 15.78
	csDefId = 1050379
	length = 10.16
	inletLossCoeff = 1.0
	outletLossCoeff = 1.0
	valveOnOff = 0
	numLossCoeff = 0
	bedFrictionType = Strickler
	bedFriction = 30.0

[Structure]
	type = culvert
	id = 1050362
	name = 1050362
	branchid = 1054215
	chainage = 1.625
	allowedFlowDir = both
	leftLevel = 14.97
	rightLevel = 15.02
	csDefId = 1050362
	length = 3.25
	inletLossCoeff = 1.0
	outletLossCoeff = 1.0
	valveOnOff = 0
	numLossCoeff = 0
	bedFrictionType = Strickler
	bedFriction = 75.0

[Structure]
	type = culvert
	id = 1050423
	name = 1050423
	branchid = 1055980
	chainage = 96.352
	allowedFlowDir = both
	leftLevel = 12.84
	rightLevel = 12.84
	csDefId = 1050423
	length = 7.6
	inletLossCoeff = 1.0
	outletLossCoeff = 1.0
	valveOnOff = 0
	numLossCoeff = 0
	bedFrictionType = Strickler
	bedFriction = 75.0

[Structure]
	type = culvert
	id = 1050142
	name = 1050142
	branchid = 1052490
	chainage = 9.999
	allowedFlowDir = both
	leftLevel = 16.04
	rightLevel = 16.08
	csDefId = 1050142
	length = 7.61
	inletLossCoeff = 1.0
	outletLossCoeff = 1.0
	valveOnOff = 0
	numLossCoeff = 0
	bedFrictionType = Strickler
	bedFriction = 75.0

[Structure]
	type = culvert
	id = 1050194
	name = 1050194
	branchid = 1054110
	chainage = 478.182
	allowedFlowDir = both
	leftLevel = 14.98
	rightLevel = 15.07
	csDefId = 1050194
	length = 10.55
	inletLossCoeff = 1.0
	outletLossCoeff = 1.0
	valveOnOff = 0
	numLossCoeff = 0
	bedFrictionType = Strickler
	bedFriction = 75.0

[Structure]
	type = culvert
	id = 1050222
	name = 1050222
	branchid = 1055150
	chainage = 181.651
	allowedFlowDir = both
	leftLevel = 16.07
	rightLevel = 16.02
	csDefId = 1050222
	length = 8.39
	inletLossCoeff = 1.0
	outletLossCoeff = 1.0
	valveOnOff = 0
	numLossCoeff = 0
	bedFrictionType = Strickler
	bedFriction = 75.0

[Structure]
	type = culvert
	id = 1050424
	name = 1050424
	branchid = 1057770
	chainage = 20.422
	allowedFlowDir = both
	leftLevel = 7.18
	rightLevel = 7.22
	csDefId = 1050424
	length = 35.38
	inletLossCoeff = 1.0
	outletLossCoeff = 1.0
	valveOnOff = 0
	numLossCoeff = 0
	bedFrictionType = Strickler
	bedFriction = 75.0

[Structure]
	type = culvert
	id = 1050352
	name = 1050352
	branchid = 1052730
	chainage = 3.117
	allowedFlowDir = both
	leftLevel = 17.47
	rightLevel = 17.4
	csDefId = 1050352
	length = 4.87
	inletLossCoeff = 1.0
	outletLossCoeff = 1.0
	valveOnOff = 0
	numLossCoeff = 0
	bedFrictionType = Strickler
	bedFriction = 100.0

[Structure]
	type = culvert
	id = 1050416
	name = 1050416
	branchid = 1052500
	chainage = 172.127
	allowedFlowDir = both
	leftLevel = 16.01
	rightLevel = 15.98
	csDefId = 1050416
	length = 2.59
	inletLossCoeff = 1.0
	outletLossCoeff = 1.0
	valveOnOff = 0
	numLossCoeff = 0
	bedFrictionType = Strickler
	bedFriction = 75.0

[Structure]
	type = culvert
	id = 1050415
	name = 1050415
	branchid = 1052490
	chainage = 133.57
	allowedFlowDir = both
	leftLevel = 16.0
	rightLevel = 16.04
	csDefId = 1050415
	length = 7.38
	inletLossCoeff = 1.0
	outletLossCoeff = 1.0
	valveOnOff = 0
	numLossCoeff = 0
	bedFrictionType = Strickler
	bedFriction = 75.0

[Structure]
	type = culvert
	id = 1050417
	name = 1050417
	branchid = 1052510
	chainage = 179.838
	allowedFlowDir = both
	leftLevel = 15.85
	rightLevel = 15.73
	csDefId = 1050417
	length = 7.38
	inletLossCoeff = 1.0
	outletLossCoeff = 1.0
	valveOnOff = 0
	numLossCoeff = 0
	bedFrictionType = Strickler
	bedFriction = 75.0

[Structure]
	type = culvert
	id = 1050440
	name = 1050440
	branchid = 1051130
	chainage = 419.136
	allowedFlowDir = both
	leftLevel = 18.26
	rightLevel = 18.22
	csDefId = 1050440
	length = 19.33
	inletLossCoeff = 1.0
	outletLossCoeff = 1.0
	valveOnOff = 0
	numLossCoeff = 0
	bedFrictionType = Strickler
	bedFriction = 75.0

[Structure]
	type = culvert
	id = 1050439
	name = 1050439
	branchid = 1051130
	chainage = 311.223
	allowedFlowDir = both
	leftLevel = 18.3
	rightLevel = 18.37
	csDefId = 1050439
	length = 11.79
	inletLossCoeff = 1.0
	outletLossCoeff = 1.0
	valveOnOff = 0
	numLossCoeff = 0
	bedFrictionType = Strickler
	bedFriction = 75.0

[Structure]
	type = culvert
	id = 1050426
	name = 1050426
	branchid = 1053630
	chainage = 104.497
	allowedFlowDir = both
	leftLevel = 15.28
	rightLevel = 15.59
	csDefId = 1050426
	length = 25.18
	inletLossCoeff = 1.0
	outletLossCoeff = 1.0
	valveOnOff = 0
	numLossCoeff = 0
	bedFrictionType = Strickler
	bedFriction = 75.0

[Structure]
	type = culvert
	id = 1050340
	name = 1050340
	branchid = 1050535
	chainage = 31.222
	allowedFlowDir = both
	leftLevel = 16.5
	rightLevel = 16.45
	csDefId = 1050340
	length = 19.81
	inletLossCoeff = 1.0
	outletLossCoeff = 1.0
	valveOnOff = 0
	numLossCoeff = 0
	bedFrictionType = Strickler
	bedFriction = 75.0

[Structure]
	type = culvert
	id = 1050342
	name = 1050342
	branchid = 1050540
	chainage = 34.257
	allowedFlowDir = both
	leftLevel = 16.44
	rightLevel = 16.44
	csDefId = 1050342
	length = 9.86
	inletLossCoeff = 1.0
	outletLossCoeff = 1.0
	valveOnOff = 0
	numLossCoeff = 0
	bedFrictionType = Strickler
	bedFriction = 75.0

[Structure]
	type = culvert
	id = 1050438
	name = 1050438
	branchid = 1051120
	chainage = 242.409
	allowedFlowDir = both
	leftLevel = 18.54
	rightLevel = 18.33
	csDefId = 1050438
	length = 10.18
	inletLossCoeff = 1.0
	outletLossCoeff = 1.0
	valveOnOff = 0
	numLossCoeff = 0
	bedFrictionType = Strickler
	bedFriction = 75.0

[Structure]
	type = culvert
	id = 1050065
	name = 1050065
	branchid = 1051328
	chainage = 533.506
	allowedFlowDir = both
	leftLevel = 17.41
	rightLevel = 17.48
	csDefId = 1050065
	length = 12.43
	inletLossCoeff = 1.0
	outletLossCoeff = 1.0
	valveOnOff = 0
	numLossCoeff = 0
	bedFrictionType = Strickler
	bedFriction = 75.0

[Structure]
	type = culvert
	id = 1050166
	name = 1050166
	branchid = 1052935
	chainage = 292.324
	allowedFlowDir = both
	leftLevel = 15.68
	rightLevel = 15.36
	csDefId = 1050166
	length = 28.16
	inletLossCoeff = 1.0
	outletLossCoeff = 1.0
	valveOnOff = 0
	numLossCoeff = 0
	bedFrictionType = Strickler
	bedFriction = 75.0

[Structure]
	type = culvert
	id = 1050187
	name = 1050187
	branchid = 1054025
	chainage = 263.214
	allowedFlowDir = both
	leftLevel = 18.27
	rightLevel = 18.27
	csDefId = 1050187
	length = 23.92
	inletLossCoeff = 1.0
	outletLossCoeff = 1.0
	valveOnOff = 0
	numLossCoeff = 0
	bedFrictionType = Strickler
	bedFriction = 75.0

[Structure]
	type = culvert
	id = 1050337
	name = 1050337
	branchid = 1050160
	chainage = 120.87
	allowedFlowDir = both
	leftLevel = 16.46
	rightLevel = 16.49
	csDefId = 1050337
	length = 7.36
	inletLossCoeff = 1.0
	outletLossCoeff = 1.0
	valveOnOff = 0
	numLossCoeff = 0
	bedFrictionType = Strickler
	bedFriction = 75.0

[Structure]
	type = culvert
	id = 1050350
	name = 1050350
	branchid = 1051240
	chainage = 6.707
	allowedFlowDir = both
	leftLevel = 17.36
	rightLevel = 17.43
	csDefId = 1050350
	length = 7.45
	inletLossCoeff = 1.0
	outletLossCoeff = 1.0
	valveOnOff = 0
	numLossCoeff = 0
	bedFrictionType = Strickler
	bedFriction = 75.0

[Structure]
	type = culvert
	id = 1050347
	name = 1050347
	branchid = 1051050
	chainage = 221.954
	allowedFlowDir = both
	leftLevel = 19.0
	rightLevel = 19.09
	csDefId = 1050347
	length = 7.39
	inletLossCoeff = 1.0
	outletLossCoeff = 1.0
	valveOnOff = 0
	numLossCoeff = 0
	bedFrictionType = Strickler
	bedFriction = 75.0

[Structure]
	type = culvert
	id = 1050414
	name = 1050414
	branchid = 1052050
	chainage = 404.334
	allowedFlowDir = both
	leftLevel = 18.22
	rightLevel = 18.27
	csDefId = 1050414
	length = 9.85
	inletLossCoeff = 1.0
	outletLossCoeff = 1.0
	valveOnOff = 0
	numLossCoeff = 0
	bedFrictionType = Strickler
	bedFriction = 75.0

[Structure]
	type = culvert
	id = 1050430
	name = 1050430
	branchid = 1052120
	chainage = 133.755
	allowedFlowDir = both
	leftLevel = 19.5
	rightLevel = 19.4
	csDefId = 1050430
	length = 12.44
	inletLossCoeff = 1.0
	outletLossCoeff = 1.0
	valveOnOff = 0
	numLossCoeff = 0
	bedFrictionType = Strickler
	bedFriction = 75.0

[Structure]
	type = culvert
	id = 1050431
	name = 1050431
	branchid = 1052160
	chainage = 127.843
	allowedFlowDir = both
	leftLevel = 18.33
	rightLevel = 18.43
	csDefId = 1050431
	length = 2.76
	inletLossCoeff = 1.0
	outletLossCoeff = 1.0
	valveOnOff = 0
	numLossCoeff = 0
	bedFrictionType = Strickler
	bedFriction = 75.0

[Structure]
	type = culvert
	id = 1050203
	name = 1050203
	branchid = 1055010
	chainage = 325.204
	allowedFlowDir = both
	leftLevel = 18.75
	rightLevel = 18.77
	csDefId = 1050203
	length = 10.25
	inletLossCoeff = 1.0
	outletLossCoeff = 1.0
	valveOnOff = 0
	numLossCoeff = 0
	bedFrictionType = Strickler
	bedFriction = 75.0

[Structure]
	type = culvert
	id = 1050075
	name = 1050075
	branchid = 1051360
	chainage = 308.657
	allowedFlowDir = both
	leftLevel = 16.23
	rightLevel = 16.27
	csDefId = 1050075
	length = 5.35
	inletLossCoeff = 1.0
	outletLossCoeff = 1.0
	valveOnOff = 0
	numLossCoeff = 0
	bedFrictionType = Strickler
	bedFriction = 75.0

[Structure]
	type = culvert
	id = 1050076
	name = 1050076
	branchid = 1051360
	chainage = 521.933
	allowedFlowDir = both
	leftLevel = 15.97
	rightLevel = 15.93
	csDefId = 1050076
	length = 11.41
	inletLossCoeff = 1.0
	outletLossCoeff = 1.0
	valveOnOff = 0
	numLossCoeff = 0
	bedFrictionType = Strickler
	bedFriction = 75.0

[Structure]
	type = culvert
	id = 1050139
	name = 1050139
	branchid = 1052460
	chainage = 201.312
	allowedFlowDir = both
	leftLevel = 16.82
	rightLevel = 16.8
	csDefId = 1050139
	length = 4.58
	inletLossCoeff = 1.0
	outletLossCoeff = 1.0
	valveOnOff = 0
	numLossCoeff = 0
	bedFrictionType = Strickler
	bedFriction = 75.0

[Structure]
	type = culvert
	id = 1050150
	name = 1050150
	branchid = 1052510
	chainage = 117.878
	allowedFlowDir = both
	leftLevel = 15.7
	rightLevel = 15.73
	csDefId = 1050150
	length = 10.4
	inletLossCoeff = 1.0
	outletLossCoeff = 1.0
	valveOnOff = 0
	numLossCoeff = 0
	bedFrictionType = Strickler
	bedFriction = 75.0

[Structure]
	type = culvert
	id = 1050237
	name = 1050237
	branchid = 1055340
	chainage = 94.547
	allowedFlowDir = both
	leftLevel = 15.26
	rightLevel = 15.31
	csDefId = 1050237
	length = 8.42
	inletLossCoeff = 1.0
	outletLossCoeff = 1.0
	valveOnOff = 0
	numLossCoeff = 0
	bedFrictionType = Strickler
	bedFriction = 75.0

[Structure]
	type = culvert
	id = 1050364
	name = 1050364
	branchid = 1050210
	chainage = 161.95
	allowedFlowDir = both
	leftLevel = 16.79
	rightLevel = 16.81
	csDefId = 1050364
	length = 7.5
	inletLossCoeff = 1.0
	outletLossCoeff = 1.0
	valveOnOff = 0
	numLossCoeff = 0
	bedFrictionType = Strickler
	bedFriction = 75.0

[Structure]
	type = culvert
	id = 1050305
	name = 1050305
	branchid = 1057650
	chainage = 22.007
	allowedFlowDir = both
	leftLevel = 9.37
	rightLevel = 9.44
	csDefId = 1050305
	length = 11.62
	inletLossCoeff = 1.0
	outletLossCoeff = 1.0
	valveOnOff = 0
	numLossCoeff = 0
	bedFrictionType = Strickler
	bedFriction = 75.0

[Structure]
	type = culvert
	id = 1050008
	name = 1050008
	branchid = 1050210
	chainage = 107.092
	allowedFlowDir = both
	leftLevel = 16.78
	rightLevel = 16.84
	csDefId = 1050008
	length = 5.03
	inletLossCoeff = 1.0
	outletLossCoeff = 1.0
	valveOnOff = 0
	numLossCoeff = 0
	bedFrictionType = Strickler
	bedFriction = 75.0

[Structure]
	type = culvert
	id = 1050098
	name = 1050098
	branchid = 1052010
	chainage = 301.313
	allowedFlowDir = both
	leftLevel = 19.29
	rightLevel = 19.25
	csDefId = 1050098
	length = 7.43
	inletLossCoeff = 1.0
	outletLossCoeff = 1.0
	valveOnOff = 0
	numLossCoeff = 0
	bedFrictionType = Strickler
	bedFriction = 75.0

[Structure]
	type = culvert
	id = 1050119
	name = 1050119
	branchid = 1052150
	chainage = 15.692
	allowedFlowDir = both
	leftLevel = 18.65
	rightLevel = 18.63
	csDefId = 1050119
	length = 7.81
	inletLossCoeff = 1.0
	outletLossCoeff = 1.0
	valveOnOff = 0
	numLossCoeff = 0
	bedFrictionType = Strickler
	bedFriction = 75.0

[Structure]
	type = culvert
	id = 1050197
	name = 1050197
	branchid = 1054245
	chainage = 95.694
	allowedFlowDir = both
	leftLevel = 13.87
	rightLevel = 13.91
	csDefId = 1050197
	length = 8.35
	inletLossCoeff = 1.0
	outletLossCoeff = 1.0
	valveOnOff = 0
	numLossCoeff = 0
	bedFrictionType = Strickler
	bedFriction = 75.0

[Structure]
	type = culvert
	id = 1050207
	name = 1050207
	branchid = 1055040
	chainage = 133.352
	allowedFlowDir = both
	leftLevel = 18.34
	rightLevel = 18.39
	csDefId = 1050207
	length = 6.43
	inletLossCoeff = 1.0
	outletLossCoeff = 1.0
	valveOnOff = 0
	numLossCoeff = 0
	bedFrictionType = Strickler
	bedFriction = 75.0

[Structure]
	type = culvert
	id = 1050284
	name = 1050284
	branchid = 1057330
	chainage = 337.248
	allowedFlowDir = both
	leftLevel = 13.18
	rightLevel = 13.22
	csDefId = 1050284
	length = 7.59
	inletLossCoeff = 1.0
	outletLossCoeff = 1.0
	valveOnOff = 0
	numLossCoeff = 0
	bedFrictionType = Strickler
	bedFriction = 75.0

[Structure]
	type = culvert
	id = 1050180
	name = 1050180
	branchid = 1053120
	chainage = 196.998
	allowedFlowDir = both
	leftLevel = 15.92
	rightLevel = 15.86
	csDefId = 1050180
	length = 13.14
	inletLossCoeff = 1.0
	outletLossCoeff = 1.0
	valveOnOff = 0
	numLossCoeff = 0
	bedFrictionType = Strickler
	bedFriction = 30.0

[Structure]
	type = culvert
	id = 1050418
	name = 1050418
	branchid = 1052960
	chainage = 194.177
	allowedFlowDir = both
	leftLevel = 14.99
	rightLevel = 15.07
	csDefId = 1050418
	length = 9.97
	inletLossCoeff = 1.0
	outletLossCoeff = 1.0
	valveOnOff = 0
	numLossCoeff = 0
	bedFrictionType = Strickler
	bedFriction = 75.0

[Structure]
	type = culvert
	id = 1050413
	name = 1050413
	branchid = 1052010
	chainage = 379.245
	allowedFlowDir = both
	leftLevel = 19.35
	rightLevel = 19.23
	csDefId = 1050413
	length = 9.92
	inletLossCoeff = 1.0
	outletLossCoeff = 1.0
	valveOnOff = 0
	numLossCoeff = 0
	bedFrictionType = Strickler
	bedFriction = 75.0

[Structure]
	type = culvert
	id = 1050339
	name = 1050339
	branchid = 1050535
	chainage = 1.762
	allowedFlowDir = both
	leftLevel = 16.46
	rightLevel = 16.45
	csDefId = 1050339
	length = 2.58
	inletLossCoeff = 1.0
	outletLossCoeff = 1.0
	valveOnOff = 0
	numLossCoeff = 0
	bedFrictionType = Strickler
	bedFriction = 75.0

[Structure]
	type = culvert
	id = 1050434
	name = 1050434
	branchid = 1051040
	chainage = 117.993
	allowedFlowDir = both
	leftLevel = 19.09
	rightLevel = 19.05
	csDefId = 1050434
	length = 10.71
	inletLossCoeff = 1.0
	outletLossCoeff = 1.0
	valveOnOff = 0
	numLossCoeff = 0
	bedFrictionType = Strickler
	bedFriction = 75.0

[Structure]
	type = culvert
	id = 1050433
	name = 1050433
	branchid = 1052120
	chainage = 157.787
	allowedFlowDir = both
	leftLevel = 19.4
	rightLevel = 19.3
	csDefId = 1050433
	length = 33.75
	inletLossCoeff = 1.0
	outletLossCoeff = 1.0
	valveOnOff = 0
	numLossCoeff = 0
	bedFrictionType = Strickler
	bedFriction = 75.0

[Structure]
	type = culvert
	id = 1050432
	name = 1050432
	branchid = 1052160
	chainage = 139.093
	allowedFlowDir = both
	leftLevel = 18.39
	rightLevel = 18.3
	csDefId = 1050432
	length = 2.7
	inletLossCoeff = 1.0
	outletLossCoeff = 1.0
	valveOnOff = 0
	numLossCoeff = 0
	bedFrictionType = Strickler
	bedFriction = 75.0

[Structure]
	type = culvert
	id = 1050429
	name = 1050429
	branchid = 1052120
	chainage = 87.185
	allowedFlowDir = both
	leftLevel = 19.53
	rightLevel = 19.5
	csDefId = 1050429
	length = 79.37
	inletLossCoeff = 1.0
	outletLossCoeff = 1.0
	valveOnOff = 0
	numLossCoeff = 0
	bedFrictionType = Strickler
	bedFriction = 75.0

[Structure]
	type = culvert
[...]
	outletLossCoeff = 1.0
	valveOnOff = 0
	numLossCoeff = 0
	bedFrictionType = Strickler
	bedFriction = 75.0

[Structure]
	type = culvert
	id = 1050331
	name = 1050331
	branchid = 1051330
	chainage = 139.549
	allowedFlowDir = both
	leftLevel = 17.44
	rightLevel = 17.41
	csDefId = 1050331
	length = 4.94
	inletLossCoeff = 1.0
	outletLossCoeff = 1.0
	valveOnOff = 0
	numLossCoeff = 0
	bedFrictionType = Strickler
	bedFriction = 75.0

[Structure]
	type = culvert
	id = 1050394
	name = 1050394
	branchid = 1054030
	chainage = 83.557
	allowedFlowDir = both
	leftLevel = 18.09
	rightLevel = 17.87
	csDefId = 1050394
	length = 10.5
	inletLossCoeff = 1.0
	outletLossCoeff = 1.0
	valveOnOff = 0
	numLossCoeff = 0
	bedFrictionType = Strickler
	bedFriction = 75.0

[Structure]
	type = culvert
	id = 1050161
	name = 1050161
	branchid = 1052770
	chainage = 120.019
	allowedFlowDir = both
	leftLevel = 16.45
	rightLevel = 16.41
	csDefId = 1050161
	length = 10.05
	inletLossCoeff = 1.0
	outletLossCoeff = 1.0
	valveOnOff = 0
	numLossCoeff = 0
	bedFrictionType = Strickler
	bedFriction = 100.0

[Structure]
	type = culvert
	id = 1050179
	name = 1050179
	branchid = 1053240
	chainage = 5.917
	allowedFlowDir = both
	leftLevel = 13.97
	rightLevel = 13.99
	csDefId = 1050179
	length = 11.78
	inletLossCoeff = 1.0
	outletLossCoeff = 1.0
	valveOnOff = 0
	numLossCoeff = 0
	bedFrictionType = Strickler
	bedFriction = 75.0

[Structure]
	type = culvert
	id = 1050182
	name = 1050182
	branchid = 1053520
	chainage = 34.851
	allowedFlowDir = both
	leftLevel = 14.33
	rightLevel = 14.2
	csDefId = 1050182
	length = 36.61
	inletLossCoeff = 1.0
	outletLossCoeff = 1.0
	valveOnOff = 0
	numLossCoeff = 0
	bedFrictionType = Strickler
	bedFriction = 75.0

[Structure]
	type = culvert
	id = 1050206
	name = 1050206
	branchid = 1057870
	chainage = 216.442
	allowedFlowDir = both
	leftLevel = 18.5
	rightLevel = 18.5
	csDefId = 1050206
	length = 14.4
	inletLossCoeff = 1.0
	outletLossCoeff = 1.0
	valveOnOff = 0
	numLossCoeff = 0
	bedFrictionType = Strickler
	bedFriction = 75.0

[Structure]
	type = culvert
	id = 1050228
	name = 1050228
	branchid = 1055330
	chainage = 14.152
	allowedFlowDir = both
	leftLevel = 16.01
	rightLevel = 16.02
	csDefId = 1050228
	length = 23.59
	inletLossCoeff = 1.0
	outletLossCoeff = 1.0
	valveOnOff = 0
	numLossCoeff = 0
	bedFrictionType = Strickler
	bedFriction = 75.0

[Structure]
	type = culvert
	id = 1050275
	name = 1050275
	branchid = 1057110
	chainage = 102.337
	allowedFlowDir = both
	leftLevel = 14.61
	rightLevel = 14.65
	csDefId = 1050275
	length = 7.62
	inletLossCoeff = 1.0
	outletLossCoeff = 1.0
	valveOnOff = 0
	numLossCoeff = 0
	bedFrictionType = Strickler
	bedFriction = 75.0

[Structure]
	type = culvert
	id = 1050277
	name = 1050277
	branchid = 1057110
	chainage = 260.379
	allowedFlowDir = both
	leftLevel = 14.56
	rightLevel = 14.56
	csDefId = 1050277
	length = 7.8
	inletLossCoeff = 1.0
	outletLossCoeff = 1.0
	valveOnOff = 0
	numLossCoeff = 0
	bedFrictionType = Strickler
	bedFriction = 75.0

[Structure]
	type = culvert
	id = 1050280
	name = 1050280
	branchid = 1057130
	chainage = 211.948
	allowedFlowDir = both
	leftLevel = 14.43
	rightLevel = 14.48
	csDefId = 1050280
	length = 12.1
	inletLossCoeff = 1.0
	outletLossCoeff = 1.0
	valveOnOff = 0
	numLossCoeff = 0
	bedFrictionType = Strickler
	bedFriction = 75.0

[Structure]
	type = culvert
	id = 1050322
	name = 1050322
	branchid = 1051630
	chainage = 153.01
	allowedFlowDir = both
	leftLevel = 15.55
	rightLevel = 15.61
	csDefId = 1050322
	length = 7.71
	inletLossCoeff = 1.0
	outletLossCoeff = 1.0
	valveOnOff = 0
	numLossCoeff = 0
	bedFrictionType = Strickler
	bedFriction = 75.0

[Structure]
	type = culvert
	id = 1050442
	name = 1050442
	branchid = 1054060
	chainage = 458.6
	allowedFlowDir = both
	leftLevel = 16.48
	rightLevel = 16.44
	csDefId = 1050442
	length = 25.74
	inletLossCoeff = 1.0
	outletLossCoeff = 1.0
	valveOnOff = 0
	numLossCoeff = 0
	bedFrictionType = Strickler
	bedFriction = 75.0

[Structure]
	type = culvert
	id = 1050445
	name = 1050445
	branchid = 1055110
	chainage = 25.941
	allowedFlowDir = both
	leftLevel = 17.22
	rightLevel = 17.25
	csDefId = 1050445
	length = 7.41
	inletLossCoeff = 1.0
	outletLossCoeff = 1.0
	valveOnOff = 0
	numLossCoeff = 0
	bedFrictionType = Strickler
	bedFriction = 75.0

[Structure]
	type = culvert
	id = 1050323
	name = 1050323
	branchid = 1052960
	chainage = 381.211
	allowedFlowDir = both
	leftLevel = 14.65
	rightLevel = 14.78
	csDefId = 1050323
	length = 9.88
	inletLossCoeff = 1.0
	outletLossCoeff = 1.0
	valveOnOff = 0
	numLossCoeff = 0
	bedFrictionType = Strickler
	bedFriction = 75.0

[Structure]
	type = culvert
	id = 1050392
	name = 1050392
	branchid = 1054010
	chainage = 72.743
	allowedFlowDir = both
	leftLevel = 18.96
	rightLevel = 18.97
	csDefId = 1050392
	length = 5.1
	inletLossCoeff = 1.0
	outletLossCoeff = 1.0
	valveOnOff = 0
	numLossCoeff = 0
	bedFrictionType = Strickler
	bedFriction = 75.0

[Structure]
	type = culvert
	id = 1050446
	name = 1050446
	branchid = 1057840
	chainage = 85.171
	allowedFlowDir = both
	leftLevel = 16.3
	rightLevel = 16.23
	csDefId = 1050446
	length = 5.12
	inletLossCoeff = 1.0
	outletLossCoeff = 1.0
	valveOnOff = 0
	numLossCoeff = 0
	bedFrictionType = Strickler
	bedFriction = 75.0

[Structure]
	type = culvert
	id = 1050447
	name = 1050447
	branchid = 1051070
	chainage = 323.441
	allowedFlowDir = both
	leftLevel = 18.31
	rightLevel = 18.37
	csDefId = 1050447
	length = 9.67
	inletLossCoeff = 1.0
	outletLossCoeff = 1.0
	valveOnOff = 0
	numLossCoeff = 0
	bedFrictionType = Strickler
	bedFriction = 75.0

[Structure]
	type = culvert
	id = 1050169
	name = 1050169
	branchid = 1052975
	chainage = 232.133
	allowedFlowDir = both
	leftLevel = 14.64
	rightLevel = 14.67
	csDefId = 1050169
	length = 17.57
	inletLossCoeff = 1.0
	outletLossCoeff = 1.0
	valveOnOff = 0
	numLossCoeff = 0
	bedFrictionType = Strickler
	bedFriction = 75.0

[Structure]
	type = weir
	id = 105AFT
	name = 105AFT
	branchid = 1052750
	chainage = 0.1
	allowedFlowDir = both
	crestLevel = 16.98
	crestWidth = 0.57
	corrCoeff = 1.0
	useVelocityHeight = true

[Structure]
	type = weir
	id = 105AKS
	name = 105AKS
	branchid = 1052040
	chainage = 0.1
	allowedFlowDir = both
	crestLevel = 19.15
	crestWidth = 1.0
	corrCoeff = 1.0
	useVelocityHeight = true

[Structure]
	type = weir
	id = 105MPD
	name = 105MPD
	branchid = 1053620
	chainage = 0.1
	allowedFlowDir = both
	crestLevel = 17.5
	crestWidth = 3.75
	corrCoeff = 1.0
	useVelocityHeight = true

[Structure]
	type = weir
	id = 105PET
	name = 105PET
	branchid = 1054245
	chainage = 0.1
	allowedFlowDir = both
	crestLevel = 14.4
	crestWidth = 1.5
	corrCoeff = 1.0
	useVelocityHeight = true

[Structure]
	type = weir
	id = 105BFA
	name = 105BFA
	branchid = 1057860
	chainage = 0.1
	allowedFlowDir = both
	crestLevel = 18.12
	crestWidth = 0.75
	corrCoeff = 1.0
	useVelocityHeight = true

[Structure]
	type = weir
	id = 105AGS
	name = 105AGS
	branchid = 1052220
	chainage = 309.6832996121217
	allowedFlowDir = both
	crestLevel = 17.48
	crestWidth = 0.85
	corrCoeff = 1.0
	useVelocityHeight = true

[Structure]
	type = weir
	id = 105BBW
	name = 105BBW
	branchid = 1056120
	chainage = 0.1
	allowedFlowDir = both
	crestLevel = 9.01
	crestWidth = 2.2
	corrCoeff = 1.0
	useVelocityHeight = true

[Structure]
	type = weir
	id = 105LBW
	name = 105LBW
	branchid = 1052940
	chainage = 499.77431664103096
	allowedFlowDir = both
	crestLevel = 15.72
	crestWidth = 1.0
	corrCoeff = 1.0
	useVelocityHeight = true

[Structure]
	type = weir
	id = 105LHW
	name = 105LHW
	branchid = 1057660
	chainage = 0.1
	allowedFlowDir = both
	crestLevel = 9.3
	crestWidth = 0.9
	corrCoeff = 1.0
	useVelocityHeight = true

[Structure]
	type = weir
	id = 105GLS
	name = 105GLS
	branchid = 1050550
	chainage = 0.1
	allowedFlowDir = both
	crestLevel = 16.29
	crestWidth = 0.58
	corrCoeff = 1.0
	useVelocityHeight = true

[Structure]
	type = weir
	id = 105PLW
	name = 105PLW
	branchid = 1052610
	chainage = 424.4764606180099
	allowedFlowDir = both
	crestLevel = 15.89
	crestWidth = 0.62
	corrCoeff = 1.0
	useVelocityHeight = true

[Structure]
	type = weir
	id = 105HHT
	name = 105HHT
	branchid = 1053225
	chainage = 0.1
	allowedFlowDir = both
	crestLevel = 14.85
	crestWidth = 1.58
	corrCoeff = 1.0
	useVelocityHeight = true

[Structure]
	type = weir
	id = 105PVS
	name = 105PVS
	branchid = 1054255
	chainage = 0.1
	allowedFlowDir = both
	crestLevel = 13.34
	crestWidth = 1.01
	corrCoeff = 1.0
	useVelocityHeight = true

[Structure]
	type = weir
	id = 105BRM
	name = 105BRM
	branchid = 1054020
	chainage = 219.36503425299702
	allowedFlowDir = both
	crestLevel = 18.53
	crestWidth = 0.61
	corrCoeff = 1.0
	useVelocityHeight = true

[Structure]
	type = weir
	id = 105SAW
	name = 105SAW
	branchid = 1057710
	chainage = 75.61536904715254
	allowedFlowDir = both
	crestLevel = 9.61
	crestWidth = 0.57
	corrCoeff = 1.0
	useVelocityHeight = true

[Structure]
	type = weir
	id = 105OMK
	name = 105OMK
	branchid = 1057150
	chainage = 0.1
	allowedFlowDir = both
	crestLevel = 14.26
	crestWidth = 0.56
	corrCoeff = 1.0
	useVelocityHeight = true

[Structure]
	type = weir
	id = 105ONS
	name = 105ONS
	branchid = 1057420
	chainage = 0.1
	allowedFlowDir = both
	crestLevel = 9.23
	crestWidth = 0.9
	corrCoeff = 1.0
	useVelocityHeight = true

[Structure]
	type = weir
	id = 105PES
	name = 105PES
	branchid = 1055960
	chainage = 0.1
	allowedFlowDir = both
	crestLevel = 14.65
	crestWidth = 1.75
	corrCoeff = 1.0
	useVelocityHeight = true

[Structure]
	type = weir
	id = 105BZS
	name = 105BZS
	branchid = 1053240
	chainage = 0.1
	allowedFlowDir = both
	crestLevel = 14.16
	crestWidth = 2.47
	corrCoeff = 1.0
	useVelocityHeight = true

[Structure]
	type = weir
	id = 105BRG
	name = 105BRG
	branchid = 1056100
	chainage = 0.1
	allowedFlowDir = both
	crestLevel = 9.66
	crestWidth = 4.2
	corrCoeff = 1.0
	useVelocityHeight = true

[Structure]
	type = weir
	id = 105BGA
	name = 105BGA
	branchid = 1051360
	chainage = 0.1
	allowedFlowDir = both
	crestLevel = 16.82
	crestWidth = 1.0
	corrCoeff = 1.0
	useVelocityHeight = true

[Structure]
	type = weir
	id = 105ADS
	name = 105ADS
	branchid = 1051670
	chainage = 0.1
	allowedFlowDir = both
	crestLevel = 15.63
	crestWidth = 2.5
	corrCoeff = 1.0
	useVelocityHeight = true

[Structure]
	type = weir
	id = 105AES
	name = 105AES
	branchid = 1052490
	chainage = 0.1
	allowedFlowDir = both
	crestLevel = 16.39
	crestWidth = 1.0
	corrCoeff = 1.0
	useVelocityHeight = true

[Structure]
	type = weir
	id = 105BZV
	name = 105BZV
	branchid = 1053510
	chainage = 608.8635697818871
	allowedFlowDir = both
	crestLevel = 14.18
	crestWidth = 0.82
	corrCoeff = 1.0
	useVelocityHeight = true

[Structure]
	type = weir
	id = 105OMS
	name = 105OMS
	branchid = 1057400
	chainage = 0.1
	allowedFlowDir = both
	crestLevel = 10.26
	crestWidth = 0.9
	corrCoeff = 1.0
	useVelocityHeight = true

[Structure]
	type = weir
	id = 105OQS
	name = 105OQS
	branchid = 1057580
	chainage = 0.1
	allowedFlowDir = both
	crestLevel = 13.32
	crestWidth = 0.9
	corrCoeff = 1.0
	useVelocityHeight = true

[Structure]
	type = weir
	id = 105PBK
	name = 105PBK
	branchid = 1054120
	chainage = 0.1
	allowedFlowDir = both
	crestLevel = 14.88
	crestWidth = 0.61
	corrCoeff = 1.0
	useVelocityHeight = true

[Structure]
	type = weir
	id = 105PCL
	name = 105PCL
	branchid = 1055130
	chainage = 0.1
	allowedFlowDir = both
	crestLevel = 16.76
	crestWidth = 0.65
	corrCoeff = 1.0
	useVelocityHeight = true

[Structure]
	type = weir
	id = 105DHA
	name = 105DHA
	branchid = 1053180
	chainage = 0.1
	allowedFlowDir = both
	crestLevel = 15.14
	crestWidth = 1.01
	corrCoeff = 1.0
	useVelocityHeight = true

[Structure]
	type = weir
	id = 105HOO
	name = 105HOO
	branchid = 1057770
	chainage = 0.1
	allowedFlowDir = both
	crestLevel = 7.15
	crestWidth = 1.8
	corrCoeff = 1.0
	useVelocityHeight = true

[Structure]
	type = weir
	id = 105PAS
	name = 105PAS
	branchid = 1057740
	chainage = 0.1
	allowedFlowDir = both
	crestLevel = 8.64
	crestWidth = 1.35
	corrCoeff = 1.0
	useVelocityHeight = true

[Structure]
	type = weir
	id = 105AHS
	name = 105AHS
	branchid = 1052210
	chainage = 0.1
	allowedFlowDir = both
	crestLevel = 17.94
	crestWidth = 0.85
	corrCoeff = 1.0
	useVelocityHeight = true

[Structure]
	type = weir
	id = 105NXS
	name = 105NXS
	branchid = 1057020
	chainage = 349.6155324767582
	allowedFlowDir = both
	crestLevel = 14.89
	crestWidth = 0.91
	corrCoeff = 1.0
	useVelocityHeight = true

[Structure]
	type = weir
	id = 105NXV
	name = 105NXV
	branchid = 1057120
	chainage = 29.19896873324657
	allowedFlowDir = both
	crestLevel = 14.48
	crestWidth = 0.57
	corrCoeff = 1.0
	useVelocityHeight = true

[Structure]
	type = weir
	id = 105OVS
	name = 105OVS
	branchid = 1057620
	chainage = 0.1
	allowedFlowDir = both
	crestLevel = 10.95
	crestWidth = 0.9
	corrCoeff = 1.0
	useVelocityHeight = true

[Structure]
	type = weir
	id = 105ADH
	name = 105ADH
	branchid = 1050535
	chainage = 0.1
	allowedFlowDir = both
	crestLevel = 16.45
	crestWidth = 0.58
	corrCoeff = 1.0
	useVelocityHeight = true

[Structure]
	type = weir
	id = 105PBR
	name = 105PBR
	branchid = 1054210
	chainage = 244.9437252819894
	allowedFlowDir = both
	crestLevel = 14.97
	crestWidth = 0.6
	corrCoeff = 1.0
	useVelocityHeight = true

[Structure]
	type = weir
	id = 105PDS
	name = 105PDS
	branchid = 1055850
	chainage = 331.31365278161104
	allowedFlowDir = both
	crestLevel = 14.94
	crestWidth = 1.75
	corrCoeff = 1.0
	useVelocityHeight = true

[Structure]
	type = weir
	id = 105PDT
	name = 105PDT
	branchid = 1055940
	chainage = 342.75359946475197
	allowedFlowDir = both
	crestLevel = 14.68
	crestWidth = 0.62
	corrCoeff = 1.0
	useVelocityHeight = true

[Structure]
	type = weir
	id = 105PGS
	name = 105PGS
	branchid = 1055970
	chainage = 103.25762861715208
	allowedFlowDir = both
	crestLevel = 13.8
	crestWidth = 1.75
	corrCoeff = 1.0
	useVelocityHeight = true

[Structure]
	type = weir
	id = 105VLW
	name = 105VLW
	branchid = 1053238
	chainage = 0.1
	allowedFlowDir = both
	crestLevel = 14.14
	crestWidth = 2.55
	corrCoeff = 1.0
	useVelocityHeight = true

[Structure]
	type = weir
	id = 105OUS
	name = 105OUS
	branchid = 1057610
	chainage = 0.1
	allowedFlowDir = both
	crestLevel = 11.89
	crestWidth = 0.9
	corrCoeff = 1.0
	useVelocityHeight = true

[Structure]
	type = weir
	id = 105PCS
	name = 105PCS
	branchid = 1055550
	chainage = 0.1
	allowedFlowDir = both
	crestLevel = 15.8
	crestWidth = 0.99
	corrCoeff = 1.0
	useVelocityHeight = true

[Structure]
	type = weir
	id = 105AFS
	name = 105AFS
	branchid = 1052470
	chainage = 0.1
	allowedFlowDir = both
	crestLevel = 16.75
	crestWidth = 0.86
	corrCoeff = 1.0
	useVelocityHeight = true

[Structure]
	type = weir
	id = 105HOE
	name = 105HOE
	branchid = 1056010
	chainage = 0.1
	allowedFlowDir = both
	crestLevel = 12.44
	crestWidth = 2.8
	corrCoeff = 1.0
	useVelocityHeight = true

[Structure]
	type = weir
	id = 105BUS
	name = 105BUS
	branchid = 1056090
	chainage = 0.1
	allowedFlowDir = both
	crestLevel = 9.51
	crestWidth = 2.0
	corrCoeff = 1.0
	useVelocityHeight = true

[Structure]
	type = weir
	id = 105ZAN
	name = 105ZAN
	branchid = 1056050
	chainage = 0.1
	allowedFlowDir = both
	crestLevel = 11.45
	crestWidth = 2.0
	corrCoeff = 1.0
	useVelocityHeight = true

[Structure]
	type = weir
	id = 105ADB
	name = 105ADB
	branchid = 1050210
	chainage = 192.44454835988273
	allowedFlowDir = both
	crestLevel = 16.72
	crestWidth = 0.57
	corrCoeff = 1.0
	useVelocityHeight = true

[Structure]
	type = weir
	id = 105PDR
	name = 105PDR
	branchid = 1055845
	chainage = 150.0097304940711
	allowedFlowDir = both
	crestLevel = 15.31
	crestWidth = 0.62
	corrCoeff = 1.0
	useVelocityHeight = true

[Structure]
	type = weir
	id = 105ADK
	name = 105ADK
	branchid = 1051610
	chainage = 178.25756435547353
	allowedFlowDir = both
	crestLevel = 16.06
	crestWidth = 0.61
	corrCoeff = 1.0
	useVelocityHeight = true

[Structure]
	type = weir
	id = 105OXS
	name = 105OXS
	branchid = 1057640
	chainage = 267.58080599314974
	allowedFlowDir = both
	crestLevel = 9.59
	crestWidth = 0.9
	corrCoeff = 1.0
	useVelocityHeight = true

[Structure]
	type = weir
	id = 105NBG
	name = 105NBG
	branchid = 1055080
	chainage = 429.6004972023313
	allowedFlowDir = both
	crestLevel = 18.17
	crestWidth = 1.0
	corrCoeff = 1.0
	useVelocityHeight = true

[Structure]
	type = weir
	id = 105SBG
	name = 105SBG
	branchid = 1057880
	chainage = 0.1
	allowedFlowDir = both
	crestLevel = 18.89
	crestWidth = 0.5
	corrCoeff = 1.0
	useVelocityHeight = true

[Structure]
	type = weir
	id = 105ACS
	name = 105ACS
	branchid = 1052975
	chainage = 0.1
	allowedFlowDir = both
	crestLevel = 15.26
	crestWidth = 3.0
	corrCoeff = 1.0
	useVelocityHeight = true

[Structure]
	type = weir
	id = 105WEV
	name = 105WEV
	branchid = 1057870
	chainage = 0.1
	allowedFlowDir = both
	crestLevel = 19.04
	crestWidth = 0.5
	corrCoeff = 1.0
	useVelocityHeight = true

[Structure]
	type = weir
	id = 105MKP
	name = 105MKP
	branchid = 1052765
	chainage = 500.67007911287914
	allowedFlowDir = both
	crestLevel = 17.49
	crestWidth = 4.5
	corrCoeff = 1.0
	useVelocityHeight = true

[Structure]
	type = weir
	id = 105ABS
	name = 105ABS
	branchid = 1053235
	chainage = 0.1
	allowedFlowDir = both
	crestLevel = 14.68
	crestWidth = 3.5
	corrCoeff = 1.0
	useVelocityHeight = true

[Structure]
	type = bridge
	id = 10506
	name = 10506
	branchid = 1051390
	chainage = 52.089
	allowedFlowDir = both
	csDefId = 10506
	shift = 0.0
	inletLossCoeff = 1.0
	outletLossCoeff = 1.0
	frictionType = Strickler
	friction = 75.0
	length = 0.75

[Structure]
	type = bridge
	id = 10501
	name = 10501
	branchid = 1056020
	chainage = 587.994
	allowedFlowDir = both
	csDefId = 10501
	shift = 0.0
	inletLossCoeff = 1.0
	outletLossCoeff = 1.0
	frictionType = Strickler
	friction = 75.0
	length = 5.02

[Structure]
	type = bridge
	id = 10502
	name = 10502
	branchid = 1056050
	chainage = 61.031
	allowedFlowDir = both
	csDefId = 10502
	shift = 0.0
	inletLossCoeff = 1.0
	outletLossCoeff = 1.0
	frictionType = Strickler
	friction = 75.0
	length = 4.62

[Structure]
	type = bridge
	id = 10503
	name = 10503
	branchid = 1056070
	chainage = 3.357
	allowedFlowDir = both
	csDefId = 10503
	shift = 0.0
	inletLossCoeff = 1.0
	outletLossCoeff = 1.0
	frictionType = Strickler
	friction = 75.0
	length = 3.19

[Structure]
	type = bridge
	id = 10509
	name = 10509
	branchid = 1052765
	chainage = 359.858
	allowedFlowDir = both
	csDefId = 10509
	shift = 0.0
	inletLossCoeff = 1.0
	outletLossCoeff = 1.0
	frictionType = Strickler
	friction = 75.0
	length = 2.25

[Structure]
	type = bridge
	id = 10513
	name = 10513
	branchid = 1055090
	chainage = 5.881
	allowedFlowDir = both
	csDefId = 10513
	shift = 0.0
	inletLossCoeff = 1.0
	outletLossCoeff = 1.0
	frictionType = Strickler
	friction = 75.0
	length = 1.0

[Structure]
	type = bridge
	id = 10512
	name = 10512
	branchid = 1057750
	chainage = 330.197
	allowedFlowDir = both
	csDefId = 10512
	shift = 0.0
	inletLossCoeff = 1.0
	outletLossCoeff = 1.0
	frictionType = Strickler
	friction = 75.0
	length = 0.54

[Structure]
	type = bridge
	id = 10504
	name = 10504
	branchid = 1057820
	chainage = 8.308
	allowedFlowDir = both
	csDefId = 10504
	shift = 0.0
	inletLossCoeff = 1.0
	outletLossCoeff = 1.0
	frictionType = Strickler
	friction = 75.0
	length = 5.39

[Structure]
	type = bridge
	id = 10515
	name = 10515
	branchid = 1056050
	chainage = 279.443
	allowedFlowDir = both
	csDefId = 10515
	shift = 0.0
	inletLossCoeff = 1.0
	outletLossCoeff = 1.0
	frictionType = Strickler
	friction = 75.0
	length = 1.0

[Structure]
	type = bridge
	id = 10514
	name = 10514
	branchid = 1057510
	chainage = 20.811
	allowedFlowDir = both
	csDefId = 10514
	shift = 0.0
	inletLossCoeff = 1.0
	outletLossCoeff = 1.0
	frictionType = Strickler
	friction = 75.0
	length = 0.67

[Structure]
	type = bridge
	id = 10510
	name = 10510
	branchid = 1052767
	chainage = 206.278
	allowedFlowDir = both
	csDefId = 10510
	shift = 0.0
	inletLossCoeff = 1.0
	outletLossCoeff = 1.0
	frictionType = Strickler
	friction = 75.0
	length = 2.25

