# Generated with D-HyDAMO in delftd3fmpy v.2.0.3 on 2023-04-19T08:42:43.627302Z.
# Tested and compatible with D-Flow FM Deltares, D-Flow FM Version 5.00.024.74498M, DIMRset Deltares, DIMR_EXE Version 2.00.00.140737 (Win64) (Win64) and D-HYDRO suite 1D2D D-HYDRO Suite 2022.03 1D2D,.
# 
[General]
fileVersion = 1.01
fileType = boundConds

[Forcing]
name       = 179556.917150_416642.991542
function   = constant
quantity   = waterlevelbnd
unit       = m
7.15

[Forcing]
name       = 1057660L
function   = timeseries
timeInterpolation = linear
quantity   = time
unit       = minutes since 2010-11-09 00:00:00
quantity   = lateral_discharge
unit       = m3/s
    0.000000     0.000000 
   60.000000     0.000000 
  120.000000     0.000747 
  180.000000     0.000746 
  240.000000     0.000745 
  300.000000     0.000744 
  360.000000     0.000743 
  420.000000     0.000742 
  480.000000     0.000741 
  540.000000     0.000740 
  600.000000     0.000739 
  660.000000     0.000738 
  720.000000     0.000738 
  780.000000     0.000737 
  840.000000     0.000736 
  900.000000     0.000735 
  960.000000     0.000734 
 1020.000000     0.000733 
 1080.000000     0.000733 
 1140.000000     0.000732 
 1200.000000     0.000731 
 1260.000000     0.000730 
 1320.000000     0.000730 
 1380.000000     0.000729 
 1440.000000     0.000728 
 1500.000000     0.000727 
 1560.000000     0.000727 
 1620.000000     0.000726 
 1680.000000     0.000725 
 1740.000000     0.000725 
 1800.000000     0.000724 
 1860.000000     0.000723 
 1920.000000     0.000723 
 1980.000000     0.000722 
 2040.000000     0.000721 
 2100.000000     0.000720 
 2160.000000     0.000720 
 2220.000000     0.000719 
 2280.000000     0.000718 
 2340.000000     0.000718 
 2400.000000     0.000717 
 2460.000000     0.000716 
 2520.000000     0.000792 
 2580.000000     0.000794 
 2640.000000     0.000790 
 2700.000000     0.000786 
 2760.000000     0.000783 
 2820.000000     0.000779 
 2880.000000     0.000781 
 2940.000000     0.000817 
 3000.000000     0.000814 
 3060.000000     0.000810 
 3120.000000     0.000805 
 3180.000000     0.000801 
 3240.000000     0.000797 
 3300.000000     0.000792 
 3360.000000     0.000788 
 3420.000000     0.000784 
 3480.000000     0.000780 
 3540.000000     0.000776 
 3600.000000     0.000772 
 3660.000000     0.000768 
 3720.000000     0.000764 
 3780.000000     0.000760 
 3840.000000     0.000757 
 3900.000000     0.000753 
 3960.000000     0.000750 
 4020.000000     0.000746 
 4080.000000     0.000743 
 4140.000000     0.000740 
 4200.000000     0.000737 
 4260.000000     0.000733 
 4320.000000     0.000730 
 4380.000000     0.000727 
 4440.000000     0.000724 
 4500.000000     0.000722 
 4560.000000     0.000719 
 4620.000000     0.000716 
 4680.000000     0.000713 
 4740.000000     0.000711 
 4800.000000     0.000708 
 4860.000000     0.000706 
 4920.000000     0.000705 
 4980.000000     0.000705 
 5040.000000     0.000704 
 5100.000000     0.000703 
 5160.000000     0.000703 
 5220.000000     0.000702 
 5280.000000     0.000701 
 5340.000000     0.000701 
 5400.000000     0.000700 
 5460.000000     0.000700 
 5520.000000     0.000699 
 5580.000000     0.000698 
 5640.000000     0.000698 
 5700.000000     0.000697 
 5760.000000     0.000696 
 5820.000000     0.000696 
 5880.000000     0.000695 
 5940.000000     0.000695 
 6000.000000     0.000694 
 6060.000000     0.000694 
 6120.000000     0.000693 
 6180.000000     0.000693 
 6240.000000     0.000692 
 6300.000000     0.000692 
 6360.000000     0.000691 
 6420.000000     0.000690 
 6480.000000     0.000690 
 6540.000000     0.000689 
 6600.000000     0.000689 
 6660.000000     0.000688 
 6720.000000     0.000687 
 6780.000000     0.000687 
 6840.000000     0.000686 
 6900.000000     0.000686 
 6960.000000     0.000685 
 7020.000000     0.000685 
 7080.000000     0.000684 
 7140.000000     0.000683 
 7200.000000     0.000683 
 7260.000000     0.000682 
 7320.000000     0.000682 
 7380.000000     0.000681 
 7440.000000     0.000680 
 7500.000000     0.000680 
 7560.000000     0.000679 
 7620.000000     0.000679 
 7680.000000     0.000678 
 7740.000000     0.000677 
 7800.000000     0.000677 
 7860.000000     0.000676 
 7920.000000     0.000676 
 7980.000000     0.000675 
 8040.000000     0.000674 
 8100.000000     0.000674 
 8160.000000     0.000673 
 8220.000000     0.000673 
 8280.000000     0.000672 
 8340.000000     0.000671 
 8400.000000     0.000671 
 8460.000000     0.000670 
 8520.000000     0.000670 
 8580.000000     0.000669 
 8640.000000     0.000668 
 8700.000000     0.000668 
 8760.000000     0.000667 
 8820.000000     0.000667 
 8880.000000     0.000666 
 8940.000000     0.000666 
 9000.000000     0.000665 
 9060.000000     0.000665 
 9120.000000     0.000664 
 9180.000000     0.000663 
 9240.000000     0.000663 
 9300.000000     0.000662 
 9360.000000     0.000662 
 9420.000000     0.000661 
 9480.000000     0.000660 
 9540.000000     0.000660 
 9600.000000     0.000659 
 9660.000000     0.000659 
 9720.000000     0.000658 
 9780.000000     0.000657 
 9840.000000     0.000657 
 9900.000000     0.000656 
 9960.000000     0.000656 
10020.000000     0.000655 
10080.000000     0.000654 
10140.000000     0.000654 
10200.000000     0.000653 
10260.000000     0.000653 
10320.000000     0.000652 
10380.000000     0.000651 
10440.000000     0.000651 
10500.000000     0.000650 
10560.000000     0.000650 
10620.000000     0.000649 
10680.000000     0.000648 
10740.000000     0.000648 
10800.000000     0.000647 
10860.000000     0.000647 
10920.000000     0.000646 
10980.000000     0.000645 
11040.000000     0.000645 
11100.000000     0.000644 
11160.000000     0.000644 
11220.000000     0.000643 
11280.000000     0.000642 
11340.000000     0.000642 
11400.000000     0.000641 
11460.000000     0.000641 
11520.000000     0.000640 
11580.000000     0.000639 
11640.000000     0.000639 
11700.000000     0.000638 
11760.000000     0.000638 
11820.000000     0.000637 
11880.000000     0.000636 
11940.000000     0.000636 
12000.000000     0.000635 
12060.000000     0.000635 
12120.000000     0.000634 
12180.000000     0.000633 
12240.000000     0.000633 
12300.000000     0.000632 
12360.000000     0.000632 
12420.000000     0.000631 
12480.000000     0.000630 
12540.000000     0.000630 
12600.000000     0.000629 
12660.000000     0.000629 
12720.000000     0.000628 
12780.000000     0.000628 
12840.000000     0.000627 
12900.000000     0.000626 
12960.000000     0.000626 
13020.000000     0.000625 
13080.000000     0.000625 
13140.000000     0.000624 
13200.000000     0.000623 
13260.000000     0.000623 
13320.000000     0.000622 
13380.000000     0.000622 
13440.000000     0.000621 
13500.000000     0.000620 
13560.000000     0.000620 
13620.000000     0.000620 
13680.000000     0.000619 
13740.000000     0.000618 
13800.000000     0.000618 
13860.000000     0.000617 
13920.000000     0.000617 
13980.000000     0.000616 
14040.000000     0.000616 
14100.000000     0.000615 
14160.000000     0.000614 
14220.000000     0.000614 
14280.000000     0.000613 
14340.000000     0.000613 
14400.000000     0.000612 
14460.000000     0.000612 
14520.000000     0.000611 
14580.000000     0.000610 
14640.000000     0.000610 
14700.000000     0.000609 
14760.000000     0.000609 
14820.000000     0.000608 
14880.000000     0.000608 
14940.000000     0.000607 
15000.000000     0.000607 
15060.000000     0.000606 
15120.000000     0.000606 
15180.000000     0.000605 
15240.000000     0.000605 
15300.000000     0.000604 
15360.000000     0.000604 
15420.000000     0.000603 
15480.000000     0.000603 
15540.000000     0.000602 
15600.000000     0.000602 
15660.000000     0.000601 
15720.000000     0.000601 
15780.000000     0.000601 
15840.000000     0.000600 
15900.000000     0.000600 
15960.000000     0.000599 
16020.000000     0.000599 
16080.000000     0.000598 
16140.000000     0.000598 
16200.000000     0.000598 
16260.000000     0.000597 
16320.000000     0.000597 
16380.000000     0.000596 
16440.000000     0.000596 
16500.000000     0.000595 
16560.000000     0.000595 
16620.000000     0.000595 
16680.000000     0.000594 
16740.000000     0.000594 
16800.000000     0.000593 
16860.000000     0.000593 
16920.000000     0.000592 
16980.000000     0.000592 
17040.000000     0.000592 
17100.000000     0.000591 
17160.000000     0.000591 
17220.000000     0.000590 
17280.000000     0.000590 
17340.000000     0.000589 
17400.000000     0.000589 
17460.000000     0.000588 
17520.000000     0.000588 
17580.000000     0.000587 
17640.000000     0.000586 
17700.000000     0.000586 
17760.000000     0.000585 
17820.000000     0.000585 
17880.000000     0.000584 
17940.000000     0.000583 
18000.000000     0.000583 
18060.000000     0.000582 
18120.000000     0.000582 
18180.000000     0.000581 
18240.000000     0.000580 
18300.000000     0.000580 
18360.000000     0.000579 
18420.000000     0.000579 
18480.000000     0.000578 
18540.000000     0.000577 
18600.000000     0.000577 
18660.000000     0.000577 

[Forcing]
name       = 1055340L
function   = timeseries
timeInterpolation = linear
quantity   = time
unit       = minutes since 2010-11-09 00:00:00
quantity   = lateral_discharge
unit       = m3/s
    0.000000     0.000000 
   60.000000     0.000000 
  120.000000     0.000547 
  180.000000     0.000546 
  240.000000     0.000545 
  300.000000     0.000544 
  360.000000     0.000543 
  420.000000     0.000543 
  480.000000     0.000542 
  540.000000     0.000541 
  600.000000     0.000541 
  660.000000     0.000540 
  720.000000     0.000539 
  780.000000     0.000539 
  840.000000     0.000538 
  900.000000     0.000538 
  960.000000     0.000537 
 1020.000000     0.000536 
 1080.000000     0.000536 
 1140.000000     0.000535 
 1200.000000     0.000535 
 1260.000000     0.000534 
 1320.000000     0.000534 
 1380.000000     0.000533 
 1440.000000     0.000533 
 1500.000000     0.000532 
 1560.000000     0.000532 
 1620.000000     0.000531 
 1680.000000     0.000530 
 1740.000000     0.000530 
 1800.000000     0.000529 
 1860.000000     0.000529 
 1920.000000     0.000528 
 1980.000000     0.000528 
 2040.000000     0.000527 
 2100.000000     0.000527 
 2160.000000     0.000526 
 2220.000000     0.000526 
 2280.000000     0.000525 
 2340.000000     0.000525 
 2400.000000     0.000524 
 2460.000000     0.000524 
 2520.000000     0.000580 
 2580.000000     0.000581 
 2640.000000     0.000578 
 2700.000000     0.000575 
 2760.000000     0.000572 
 2820.000000     0.000570 
 2880.000000     0.000571 
 2940.000000     0.000598 
 3000.000000     0.000596 
 3060.000000     0.000592 
 3120.000000     0.000589 
 3180.000000     0.000586 
 3240.000000     0.000583 
 3300.000000     0.000579 
 3360.000000     0.000576 
 3420.000000     0.000573 
 3480.000000     0.000570 
 3540.000000     0.000567 
 3600.000000     0.000564 
 3660.000000     0.000562 
 3720.000000     0.000559 
 3780.000000     0.000556 
 3840.000000     0.000553 
 3900.000000     0.000551 
 3960.000000     0.000548 
 4020.000000     0.000546 
 4080.000000     0.000543 
 4140.000000     0.000541 
 4200.000000     0.000539 
 4260.000000     0.000536 
 4320.000000     0.000534 
 4380.000000     0.000532 
 4440.000000     0.000530 
 4500.000000     0.000528 
 4560.000000     0.000526 
 4620.000000     0.000524 
 4680.000000     0.000522 
 4740.000000     0.000520 
 4800.000000     0.000518 
 4860.000000     0.000517 
 4920.000000     0.000516 
 4980.000000     0.000516 
 5040.000000     0.000515 
 5100.000000     0.000514 
 5160.000000     0.000514 
 5220.000000     0.000514 
 5280.000000     0.000513 
 5340.000000     0.000513 
 5400.000000     0.000512 
 5460.000000     0.000512 
 5520.000000     0.000511 
 5580.000000     0.000511 
 5640.000000     0.000510 
 5700.000000     0.000510 
 5760.000000     0.000509 
 5820.000000     0.000509 
 5880.000000     0.000508 
 5940.000000     0.000508 
 6000.000000     0.000508 
 6060.000000     0.000507 
 6120.000000     0.000507 
 6180.000000     0.000507 
 6240.000000     0.000506 
 6300.000000     0.000506 
 6360.000000     0.000505 
 6420.000000     0.000505 
 6480.000000     0.000505 
 6540.000000     0.000504 
 6600.000000     0.000504 
 6660.000000     0.000503 
 6720.000000     0.000503 
 6780.000000     0.000502 
 6840.000000     0.000502 
 6900.000000     0.000501 
 6960.000000     0.000501 
 7020.000000     0.000501 
 7080.000000     0.000500 
 7140.000000     0.000500 
 7200.000000     0.000499 
 7260.000000     0.000499 
 7320.000000     0.000499 
 7380.000000     0.000498 
 7440.000000     0.000498 
 7500.000000     0.000497 
 7560.000000     0.000497 
 7620.000000     0.000496 
 7680.000000     0.000496 
 7740.000000     0.000496 
 7800.000000     0.000495 
 7860.000000     0.000495 
 7920.000000     0.000494 
 7980.000000     0.000494 
 8040.000000     0.000493 
 8100.000000     0.000493 
 8160.000000     0.000492 
 8220.000000     0.000492 
 8280.000000     0.000492 
 8340.000000     0.000491 
 8400.000000     0.000491 
 8460.000000     0.000490 
 8520.000000     0.000490 
 8580.000000     0.000489 
 8640.000000     0.000489 
 8700.000000     0.000488 
 8760.000000     0.000488 
 8820.000000     0.000488 
 8880.000000     0.000487 
 8940.000000     0.000487 
 9000.000000     0.000487 
 9060.000000     0.000486 
 9120.000000     0.000486 
 9180.000000     0.000485 
 9240.000000     0.000485 
 9300.000000     0.000484 
 9360.000000     0.000484 
 9420.000000     0.000483 
 9480.000000     0.000483 
 9540.000000     0.000483 
 9600.000000     0.000482 
 9660.000000     0.000482 
 9720.000000     0.000481 
 9780.000000     0.000481 
 9840.000000     0.000480 
 9900.000000     0.000480 
 9960.000000     0.000479 
10020.000000     0.000479 
10080.000000     0.000479 
10140.000000     0.000478 
10200.000000     0.000478 
10260.000000     0.000477 
10320.000000     0.000477 
10380.000000     0.000476 
10440.000000     0.000476 
10500.000000     0.000476 
10560.000000     0.000475 
10620.000000     0.000475 
10680.000000     0.000474 
10740.000000     0.000474 
10800.000000     0.000473 
10860.000000     0.000473 
10920.000000     0.000472 
10980.000000     0.000472 
11040.000000     0.000472 
11100.000000     0.000471 
11160.000000     0.000471 
11220.000000     0.000470 
11280.000000     0.000470 
11340.000000     0.000469 
11400.000000     0.000469 
11460.000000     0.000468 
11520.000000     0.000468 
11580.000000     0.000468 
11640.000000     0.000467 
11700.000000     0.000467 
11760.000000     0.000466 
11820.000000     0.000466 
11880.000000     0.000465 
11940.000000     0.000465 
12000.000000     0.000465 
12060.000000     0.000464 
12120.000000     0.000464 
12180.000000     0.000463 
12240.000000     0.000463 
12300.000000     0.000462 
12360.000000     0.000462 
12420.000000     0.000461 
12480.000000     0.000461 
12540.000000     0.000461 
12600.000000     0.000460 
12660.000000     0.000460 
12720.000000     0.000459 
12780.000000     0.000459 
12840.000000     0.000459 
12900.000000     0.000458 
12960.000000     0.000458 
13020.000000     0.000457 
13080.000000     0.000457 
13140.000000     0.000456 
13200.000000     0.000456 
13260.000000     0.000456 
13320.000000     0.000455 
13380.000000     0.000455 
13440.000000     0.000454 
13500.000000     0.000454 
13560.000000     0.000454 
13620.000000     0.000453 
13680.000000     0.000453 
13740.000000     0.000452 
13800.000000     0.000452 
13860.000000     0.000451 
13920.000000     0.000451 
13980.000000     0.000451 
14040.000000     0.000450 
14100.000000     0.000450 
14160.000000     0.000449 
14220.000000     0.000449 
14280.000000     0.000449 
14340.000000     0.000448 
14400.000000     0.000448 
14460.000000     0.000447 
14520.000000     0.000447 
14580.000000     0.000447 
14640.000000     0.000446 
14700.000000     0.000446 
14760.000000     0.000445 
14820.000000     0.000445 
14880.000000     0.000445 
14940.000000     0.000444 
15000.000000     0.000444 
15060.000000     0.000443 
15120.000000     0.000443 
15180.000000     0.000443 
15240.000000     0.000442 
15300.000000     0.000442 
15360.000000     0.000442 
15420.000000     0.000441 
15480.000000     0.000441 
15540.000000     0.000441 
15600.000000     0.000440 
15660.000000     0.000440 
15720.000000     0.000440 
15780.000000     0.000439 
15840.000000     0.000439 
15900.000000     0.000439 
15960.000000     0.000438 
16020.000000     0.000438 
16080.000000     0.000438 
16140.000000     0.000437 
16200.000000     0.000437 
16260.000000     0.000437 
16320.000000     0.000436 
16380.000000     0.000436 
16440.000000     0.000436 
16500.000000     0.000436 
16560.000000     0.000435 
16620.000000     0.000435 
16680.000000     0.000435 
16740.000000     0.000434 
16800.000000     0.000434 
16860.000000     0.000434 
16920.000000     0.000433 
16980.000000     0.000433 
17040.000000     0.000433 
17100.000000     0.000432 
17160.000000     0.000432 
17220.000000     0.000432 
17280.000000     0.000431 
17340.000000     0.000431 
17400.000000     0.000431 
17460.000000     0.000430 
17520.000000     0.000430 
17580.000000     0.000429 
17640.000000     0.000429 
17700.000000     0.000429 
17760.000000     0.000428 
17820.000000     0.000428 
17880.000000     0.000427 
17940.000000     0.000427 
18000.000000     0.000426 
18060.000000     0.000426 
18120.000000     0.000425 
18180.000000     0.000425 
18240.000000     0.000425 
18300.000000     0.000424 
18360.000000     0.000424 
18420.000000     0.000423 
18480.000000     0.000423 
18540.000000     0.000422 
18600.000000     0.000422 
18660.000000     0.000422 

[Forcing]
name       = 1055935L
function   = timeseries
timeInterpolation = linear
quantity   = time
unit       = minutes since 2010-11-09 00:00:00
quantity   = lateral_discharge
unit       = m3/s
    0.000000     0.000000 
   60.000000     0.000000 
  120.000000     0.001376 
  180.000000     0.001374 
  240.000000     0.001372 
  300.000000     0.001370 
  360.000000     0.001368 
  420.000000     0.001366 
  480.000000     0.001365 
  540.000000     0.001363 
  600.000000     0.001361 
  660.000000     0.001360 
  720.000000     0.001358 
  780.000000     0.001356 
  840.000000     0.001355 
  900.000000     0.001354 
  960.000000     0.001352 
 1020.000000     0.001350 
 1080.000000     0.001349 
 1140.000000     0.001348 
 1200.000000     0.001346 
 1260.000000     0.001345 
 1320.000000     0.001344 
 1380.000000     0.001342 
 1440.000000     0.001341 
 1500.000000     0.001339 
 1560.000000     0.001338 
 1620.000000     0.001337 
 1680.000000     0.001335 
 1740.000000     0.001334 
 1800.000000     0.001333 
 1860.000000     0.001332 
 1920.000000     0.001330 
 1980.000000     0.001329 
 2040.000000     0.001328 
 2100.000000     0.001327 
 2160.000000     0.001325 
 2220.000000     0.001324 
 2280.000000     0.001323 
 2340.000000     0.001322 
 2400.000000     0.001320 
 2460.000000     0.001319 
 2520.000000     0.001459 
 2580.000000     0.001462 
 2640.000000     0.001455 
 2700.000000     0.001448 
 2760.000000     0.001441 
 2820.000000     0.001434 
 2880.000000     0.001438 
 2940.000000     0.001505 
 3000.000000     0.001500 
 3060.000000     0.001491 
 3120.000000     0.001483 
 3180.000000     0.001475 
 3240.000000     0.001467 
 3300.000000     0.001459 
 3360.000000     0.001451 
 3420.000000     0.001443 
 3480.000000     0.001436 
 3540.000000     0.001428 
 3600.000000     0.001421 
 3660.000000     0.001414 
 3720.000000     0.001407 
 3780.000000     0.001400 
 3840.000000     0.001393 
 3900.000000     0.001387 
 3960.000000     0.001381 
 4020.000000     0.001374 
 4080.000000     0.001368 
 4140.000000     0.001362 
 4200.000000     0.001356 
 4260.000000     0.001350 
 4320.000000     0.001345 
 4380.000000     0.001339 
 4440.000000     0.001334 
 4500.000000     0.001329 
 4560.000000     0.001323 
 4620.000000     0.001318 
 4680.000000     0.001313 
 4740.000000     0.001309 
 4800.000000     0.001304 
 4860.000000     0.001301 
 4920.000000     0.001299 
 4980.000000     0.001298 
 5040.000000     0.001297 
 5100.000000     0.001295 
 5160.000000     0.001294 
 5220.000000     0.001293 
 5280.000000     0.001292 
 5340.000000     0.001291 
 5400.000000     0.001290 
 5460.000000     0.001288 
 5520.000000     0.001287 
 5580.000000     0.001286 
 5640.000000     0.001285 
 5700.000000     0.001283 
 5760.000000     0.001282 
 5820.000000     0.001281 
 5880.000000     0.001280 
 5940.000000     0.001279 
 6000.000000     0.001278 
 6060.000000     0.001277 
 6120.000000     0.001276 
 6180.000000     0.001276 
 6240.000000     0.001275 
 6300.000000     0.001273 
 6360.000000     0.001272 
 6420.000000     0.001271 
 6480.000000     0.001270 
 6540.000000     0.001269 
 6600.000000     0.001268 
 6660.000000     0.001267 
 6720.000000     0.001266 
 6780.000000     0.001265 
 6840.000000     0.001264 
 6900.000000     0.001262 
 6960.000000     0.001262 
 7020.000000     0.001261 
 7080.000000     0.001260 
 7140.000000     0.001258 
 7200.000000     0.001257 
 7260.000000     0.001256 
 7320.000000     0.001255 
 7380.000000     0.001254 
 7440.000000     0.001253 
 7500.000000     0.001252 
 7560.000000     0.001251 
 7620.000000     0.001250 
 7680.000000     0.001249 
 7740.000000     0.001247 
 7800.000000     0.001246 
 7860.000000     0.001245 
 7920.000000     0.001244 
 7980.000000     0.001243 
 8040.000000     0.001242 
 8100.000000     0.001241 
 8160.000000     0.001240 
 8220.000000     0.001239 
 8280.000000     0.001238 
 8340.000000     0.001236 
 8400.000000     0.001235 
 8460.000000     0.001234 
 8520.000000     0.001233 
 8580.000000     0.001232 
 8640.000000     0.001231 
 8700.000000     0.001230 
 8760.000000     0.001229 
 8820.000000     0.001228 
 8880.000000     0.001227 
 8940.000000     0.001226 
 9000.000000     0.001225 
 9060.000000     0.001224 
 9120.000000     0.001223 
 9180.000000     0.001222 
 9240.000000     0.001220 
 9300.000000     0.001219 
 9360.000000     0.001218 
 9420.000000     0.001217 
 9480.000000     0.001216 
 9540.000000     0.001215 
 9600.000000     0.001214 
 9660.000000     0.001213 
 9720.000000     0.001212 
 9780.000000     0.001210 
 9840.000000     0.001209 
 9900.000000     0.001208 
 9960.000000     0.001207 
10020.000000     0.001206 
10080.000000     0.001205 
10140.000000     0.001204 
10200.000000     0.001203 
10260.000000     0.001202 
10320.000000     0.001200 
10380.000000     0.001199 
10440.000000     0.001198 
10500.000000     0.001197 
10560.000000     0.001196 
10620.000000     0.001195 
10680.000000     0.001194 
10740.000000     0.001193 
10800.000000     0.001192 
10860.000000     0.001191 
10920.000000     0.001189 
10980.000000     0.001188 
11040.000000     0.001187 
11100.000000     0.001186 
11160.000000     0.001185 
11220.000000     0.001184 
11280.000000     0.001183 
11340.000000     0.001182 
11400.000000     0.001181 
11460.000000     0.001179 
11520.000000     0.001178 
11580.000000     0.001177 
11640.000000     0.001176 
11700.000000     0.001175 
11760.000000     0.001174 
11820.000000     0.001173 
11880.000000     0.001172 
11940.000000     0.001171 
12000.000000     0.001170 
12060.000000     0.001168 
12120.000000     0.001167 
12180.000000     0.001166 
12240.000000     0.001165 
12300.000000     0.001164 
12360.000000     0.001163 
12420.000000     0.001162 
12480.000000     0.001161 
12540.000000     0.001160 
12600.000000     0.001159 
12660.000000     0.001158 
12720.000000     0.001157 
12780.000000     0.001156 
12840.000000     0.001155 
12900.000000     0.001153 
12960.000000     0.001152 
13020.000000     0.001151 
13080.000000     0.001150 
13140.000000     0.001149 
13200.000000     0.001148 
13260.000000     0.001147 
13320.000000     0.001146 
13380.000000     0.001145 
13440.000000     0.001144 
13500.000000     0.001142 
13560.000000     0.001142 
13620.000000     0.001141 
13680.000000     0.001140 
13740.000000     0.001139 
13800.000000     0.001137 
13860.000000     0.001136 
13920.000000     0.001136 
13980.000000     0.001135 
14040.000000     0.001134 
14100.000000     0.001132 
14160.000000     0.001131 
14220.000000     0.001130 
14280.000000     0.001129 
14340.000000     0.001129 
14400.000000     0.001127 
14460.000000     0.001126 
14520.000000     0.001125 
14580.000000     0.001124 
14640.000000     0.001123 
14700.000000     0.001122 
14760.000000     0.001121 
14820.000000     0.001120 
14880.000000     0.001119 
14940.000000     0.001118 
15000.000000     0.001117 
15060.000000     0.001116 
15120.000000     0.001115 
15180.000000     0.001114 
15240.000000     0.001114 
15300.000000     0.001113 
15360.000000     0.001112 
15420.000000     0.001111 
15480.000000     0.001110 
15540.000000     0.001109 
15600.000000     0.001109 
15660.000000     0.001108 
15720.000000     0.001107 
15780.000000     0.001106 
15840.000000     0.001105 
15900.000000     0.001104 
15960.000000     0.001104 
16020.000000     0.001103 
16080.000000     0.001102 
16140.000000     0.001101 
16200.000000     0.001100 
16260.000000     0.001100 
16320.000000     0.001099 
16380.000000     0.001098 
16440.000000     0.001098 
16500.000000     0.001097 
16560.000000     0.001096 
16620.000000     0.001095 
16680.000000     0.001094 
16740.000000     0.001093 
16800.000000     0.001093 
16860.000000     0.001092 
16920.000000     0.001091 
16980.000000     0.001090 
17040.000000     0.001089 
17100.000000     0.001088 
17160.000000     0.001088 
17220.000000     0.001087 
17280.000000     0.001086 
17340.000000     0.001085 
17400.000000     0.001084 
17460.000000     0.001083 
17520.000000     0.001082 
17580.000000     0.001081 
17640.000000     0.001080 
17700.000000     0.001079 
17760.000000     0.001078 
17820.000000     0.001077 
17880.000000     0.001076 
17940.000000     0.001074 
18000.000000     0.001073 
18060.000000     0.001072 
18120.000000     0.001071 
18180.000000     0.001070 
18240.000000     0.001069 
18300.000000     0.001068 
18360.000000     0.001067 
18420.000000     0.001066 
18480.000000     0.001064 
18540.000000     0.001063 
18600.000000     0.001062 
18660.000000     0.001062 

[Forcing]
name       = 1056150L
function   = timeseries
timeInterpolation = linear
quantity   = time
unit       = minutes since 2010-11-09 00:00:00
quantity   = lateral_discharge
unit       = m3/s
    0.000000     0.000000 
   60.000000     0.000000 
  120.000000     0.001635 
  180.000000     0.001632 
  240.000000     0.001630 
  300.000000     0.001627 
  360.000000     0.001625 
  420.000000     0.001623 
  480.000000     0.001621 
  540.000000     0.001619 
  600.000000     0.001617 
  660.000000     0.001615 
  720.000000     0.001613 
  780.000000     0.001611 
  840.000000     0.001609 
  900.000000     0.001608 
  960.000000     0.001606 
 1020.000000     0.001604 
 1080.000000     0.001603 
 1140.000000     0.001601 
 1200.000000     0.001600 
 1260.000000     0.001598 
 1320.000000     0.001596 
 1380.000000     0.001594 
 1440.000000     0.001593 
 1500.000000     0.001591 
 1560.000000     0.001590 
 1620.000000     0.001588 
 1680.000000     0.001586 
 1740.000000     0.001585 
 1800.000000     0.001583 
 1860.000000     0.001582 
 1920.000000     0.001580 
 1980.000000     0.001579 
 2040.000000     0.001577 
 2100.000000     0.001576 
 2160.000000     0.001574 
 2220.000000     0.001573 
 2280.000000     0.001571 
 2340.000000     0.001570 
 2400.000000     0.001568 
 2460.000000     0.001567 
 2520.000000     0.001734 
 2580.000000     0.001737 
 2640.000000     0.001729 
 2700.000000     0.001720 
 2760.000000     0.001712 
 2820.000000     0.001704 
 2880.000000     0.001709 
 2940.000000     0.001787 
 3000.000000     0.001781 
 3060.000000     0.001772 
 3120.000000     0.001762 
 3180.000000     0.001752 
 3240.000000     0.001743 
 3300.000000     0.001733 
 3360.000000     0.001724 
 3420.000000     0.001714 
 3480.000000     0.001706 
 3540.000000     0.001697 
 3600.000000     0.001688 
 3660.000000     0.001680 
 3720.000000     0.001671 
 3780.000000     0.001663 
 3840.000000     0.001655 
 3900.000000     0.001647 
 3960.000000     0.001640 
 4020.000000     0.001632 
 4080.000000     0.001625 
 4140.000000     0.001618 
 4200.000000     0.001611 
 4260.000000     0.001604 
 4320.000000     0.001598 
 4380.000000     0.001591 
 4440.000000     0.001584 
 4500.000000     0.001579 
 4560.000000     0.001572 
 4620.000000     0.001566 
 4680.000000     0.001560 
 4740.000000     0.001555 
 4800.000000     0.001549 
 4860.000000     0.001545 
 4920.000000     0.001543 
 4980.000000     0.001542 
 5040.000000     0.001540 
 5100.000000     0.001538 
 5160.000000     0.001537 
 5220.000000     0.001536 
 5280.000000     0.001535 
 5340.000000     0.001533 
 5400.000000     0.001532 
 5460.000000     0.001531 
 5520.000000     0.001529 
 5580.000000     0.001527 
 5640.000000     0.001526 
 5700.000000     0.001525 
 5760.000000     0.001523 
 5820.000000     0.001522 
 5880.000000     0.001521 
 5940.000000     0.001519 
 6000.000000     0.001519 
 6060.000000     0.001517 
 6120.000000     0.001516 
 6180.000000     0.001515 
 6240.000000     0.001514 
 6300.000000     0.001513 
 6360.000000     0.001512 
 6420.000000     0.001510 
 6480.000000     0.001509 
 6540.000000     0.001508 
 6600.000000     0.001506 
 6660.000000     0.001505 
 6720.000000     0.001504 
 6780.000000     0.001502 
 6840.000000     0.001501 
 6900.000000     0.001500 
 6960.000000     0.001499 
 7020.000000     0.001498 
 7080.000000     0.001496 
 7140.000000     0.001494 
 7200.000000     0.001494 
 7260.000000     0.001492 
 7320.000000     0.001491 
 7380.000000     0.001490 
 7440.000000     0.001489 
 7500.000000     0.001487 
 7560.000000     0.001486 
 7620.000000     0.001485 
 7680.000000     0.001483 
 7740.000000     0.001482 
 7800.000000     0.001481 
 7860.000000     0.001479 
 7920.000000     0.001478 
 7980.000000     0.001477 
 8040.000000     0.001475 
 8100.000000     0.001474 
 8160.000000     0.001473 
 8220.000000     0.001471 
 8280.000000     0.001470 
 8340.000000     0.001469 
 8400.000000     0.001468 
 8460.000000     0.001466 
 8520.000000     0.001465 
 8580.000000     0.001464 
 8640.000000     0.001462 
 8700.000000     0.001461 
 8760.000000     0.001460 
 8820.000000     0.001458 
 8880.000000     0.001458 
 8940.000000     0.001456 
 9000.000000     0.001455 
 9060.000000     0.001454 
 9120.000000     0.001452 
 9180.000000     0.001451 
 9240.000000     0.001450 
 9300.000000     0.001448 
 9360.000000     0.001447 
 9420.000000     0.001446 
 9480.000000     0.001445 
 9540.000000     0.001443 
 9600.000000     0.001442 
 9660.000000     0.001441 
 9720.000000     0.001439 
 9780.000000     0.001438 
 9840.000000     0.001437 
 9900.000000     0.001435 
 9960.000000     0.001434 
10020.000000     0.001433 
10080.000000     0.001431 
10140.000000     0.001430 
10200.000000     0.001429 
10260.000000     0.001427 
10320.000000     0.001426 
10380.000000     0.001425 
10440.000000     0.001423 
10500.000000     0.001422 
10560.000000     0.001421 
10620.000000     0.001420 
10680.000000     0.001418 
10740.000000     0.001417 
10800.000000     0.001416 
10860.000000     0.001414 
10920.000000     0.001413 
10980.000000     0.001412 
11040.000000     0.001410 
11100.000000     0.001409 
11160.000000     0.001408 
11220.000000     0.001406 
11280.000000     0.001405 
11340.000000     0.001404 
11400.000000     0.001402 
11460.000000     0.001401 
11520.000000     0.001400 
11580.000000     0.001399 
11640.000000     0.001397 
11700.000000     0.001396 
11760.000000     0.001395 
11820.000000     0.001393 
11880.000000     0.001392 
11940.000000     0.001391 
12000.000000     0.001389 
12060.000000     0.001388 
12120.000000     0.001387 
12180.000000     0.001385 
12240.000000     0.001384 
12300.000000     0.001383 
12360.000000     0.001381 
12420.000000     0.001380 
12480.000000     0.001379 
12540.000000     0.001378 
12600.000000     0.001377 
12660.000000     0.001376 
12720.000000     0.001374 
12780.000000     0.001373 
12840.000000     0.001372 
12900.000000     0.001370 
12960.000000     0.001369 
13020.000000     0.001368 
13080.000000     0.001366 
13140.000000     0.001365 
13200.000000     0.001364 
13260.000000     0.001362 
13320.000000     0.001361 
13380.000000     0.001360 
13440.000000     0.001358 
13500.000000     0.001357 
13560.000000     0.001356 
13620.000000     0.001355 
13680.000000     0.001354 
13740.000000     0.001353 
13800.000000     0.001351 
13860.000000     0.001350 
13920.000000     0.001349 
13980.000000     0.001348 
14040.000000     0.001347 
14100.000000     0.001345 
14160.000000     0.001344 
14220.000000     0.001343 
14280.000000     0.001341 
14340.000000     0.001341 
14400.000000     0.001339 
14460.000000     0.001338 
14520.000000     0.001337 
14580.000000     0.001335 
14640.000000     0.001334 
14700.000000     0.001333 
14760.000000     0.001332 
14820.000000     0.001331 
14880.000000     0.001330 
14940.000000     0.001328 
15000.000000     0.001327 
15060.000000     0.001326 
15120.000000     0.001325 
15180.000000     0.001324 
15240.000000     0.001323 
15300.000000     0.001322 
15360.000000     0.001321 
15420.000000     0.001320 
15480.000000     0.001319 
15540.000000     0.001318 
15600.000000     0.001317 
15660.000000     0.001316 
15720.000000     0.001315 
15780.000000     0.001314 
15840.000000     0.001313 
15900.000000     0.001312 
15960.000000     0.001311 
16020.000000     0.001310 
16080.000000     0.001309 
16140.000000     0.001308 
16200.000000     0.001307 
16260.000000     0.001307 
16320.000000     0.001305 
16380.000000     0.001305 
16440.000000     0.001304 
16500.000000     0.001303 
16560.000000     0.001302 
16620.000000     0.001301 
16680.000000     0.001300 
16740.000000     0.001299 
16800.000000     0.001298 
16860.000000     0.001297 
16920.000000     0.001296 
16980.000000     0.001295 
17040.000000     0.001294 
17100.000000     0.001293 
17160.000000     0.001292 
17220.000000     0.001291 
17280.000000     0.001290 
17340.000000     0.001289 
17400.000000     0.001288 
17460.000000     0.001287 
17520.000000     0.001286 
17580.000000     0.001284 
17640.000000     0.001283 
17700.000000     0.001282 
17760.000000     0.001280 
17820.000000     0.001279 
17880.000000     0.001278 
17940.000000     0.001276 
18000.000000     0.001275 
18060.000000     0.001274 
18120.000000     0.001272 
18180.000000     0.001271 
18240.000000     0.001270 
18300.000000     0.001268 
18360.000000     0.001267 
18420.000000     0.001266 
18480.000000     0.001265 
18540.000000     0.001263 
18600.000000     0.001262 
18660.000000     0.001261 

[Forcing]
name       = 1057380L
function   = timeseries
timeInterpolation = linear
quantity   = time
unit       = minutes since 2010-11-09 00:00:00
quantity   = lateral_discharge
unit       = m3/s
    0.000000     0.000000 
   60.000000     0.000000 
  120.000000     0.000225 
  180.000000     0.000225 
  240.000000     0.000224 
  300.000000     0.000224 
  360.000000     0.000224 
  420.000000     0.000223 
  480.000000     0.000223 
  540.000000     0.000223 
  600.000000     0.000222 
  660.000000     0.000222 
  720.000000     0.000222 
  780.000000     0.000222 
  840.000000     0.000221 
  900.000000     0.000221 
  960.000000     0.000221 
 1020.000000     0.000221 
 1080.000000     0.000220 
 1140.000000     0.000220 
 1200.000000     0.000220 
 1260.000000     0.000220 
 1320.000000     0.000220 
 1380.000000     0.000219 
 1440.000000     0.000219 
 1500.000000     0.000219 
 1560.000000     0.000219 
 1620.000000     0.000219 
 1680.000000     0.000218 
 1740.000000     0.000218 
 1800.000000     0.000218 
 1860.000000     0.000218 
 1920.000000     0.000217 
 1980.000000     0.000217 
 2040.000000     0.000217 
 2100.000000     0.000217 
 2160.000000     0.000217 
 2220.000000     0.000216 
 2280.000000     0.000216 
 2340.000000     0.000216 
 2400.000000     0.000216 
 2460.000000     0.000216 
 2520.000000     0.000238 
 2580.000000     0.000239 
 2640.000000     0.000238 
 2700.000000     0.000237 
 2760.000000     0.000235 
 2820.000000     0.000234 
 2880.000000     0.000235 
 2940.000000     0.000246 
 3000.000000     0.000245 
 3060.000000     0.000244 
 3120.000000     0.000242 
 3180.000000     0.000241 
 3240.000000     0.000240 
 3300.000000     0.000238 
 3360.000000     0.000237 
 3420.000000     0.000236 
 3480.000000     0.000235 
 3540.000000     0.000233 
 3600.000000     0.000232 
 3660.000000     0.000231 
 3720.000000     0.000230 
 3780.000000     0.000229 
 3840.000000     0.000228 
 3900.000000     0.000227 
 3960.000000     0.000226 
 4020.000000     0.000225 
 4080.000000     0.000224 
 4140.000000     0.000223 
 4200.000000     0.000222 
 4260.000000     0.000221 
 4320.000000     0.000220 
 4380.000000     0.000219 
 4440.000000     0.000218 
 4500.000000     0.000217 
 4560.000000     0.000216 
 4620.000000     0.000215 
 4680.000000     0.000215 
 4740.000000     0.000214 
 4800.000000     0.000213 
 4860.000000     0.000213 
 4920.000000     0.000212 
 4980.000000     0.000212 
 5040.000000     0.000212 
 5100.000000     0.000212 
 5160.000000     0.000211 
 5220.000000     0.000211 
 5280.000000     0.000211 
 5340.000000     0.000211 
 5400.000000     0.000211 
 5460.000000     0.000211 
 5520.000000     0.000210 
 5580.000000     0.000210 
 5640.000000     0.000210 
 5700.000000     0.000210 
 5760.000000     0.000210 
 5820.000000     0.000209 
 5880.000000     0.000209 
 5940.000000     0.000209 
 6000.000000     0.000209 
 6060.000000     0.000209 
 6120.000000     0.000209 
 6180.000000     0.000208 
 6240.000000     0.000208 
 6300.000000     0.000208 
 6360.000000     0.000208 
 6420.000000     0.000208 
 6480.000000     0.000208 
 6540.000000     0.000207 
 6600.000000     0.000207 
 6660.000000     0.000207 
 6720.000000     0.000207 
 6780.000000     0.000207 
 6840.000000     0.000206 
 6900.000000     0.000206 
 6960.000000     0.000206 
 7020.000000     0.000206 
 7080.000000     0.000206 
 7140.000000     0.000206 
 7200.000000     0.000205 
 7260.000000     0.000205 
 7320.000000     0.000205 
 7380.000000     0.000205 
 7440.000000     0.000205 
 7500.000000     0.000205 
 7560.000000     0.000204 
 7620.000000     0.000204 
 7680.000000     0.000204 
 7740.000000     0.000204 
 7800.000000     0.000204 
 7860.000000     0.000204 
 7920.000000     0.000203 
 7980.000000     0.000203 
 8040.000000     0.000203 
 8100.000000     0.000203 
 8160.000000     0.000203 
 8220.000000     0.000202 
 8280.000000     0.000202 
 8340.000000     0.000202 
 8400.000000     0.000202 
 8460.000000     0.000202 
 8520.000000     0.000202 
 8580.000000     0.000201 
 8640.000000     0.000201 
 8700.000000     0.000201 
 8760.000000     0.000201 
 8820.000000     0.000201 
 8880.000000     0.000201 
 8940.000000     0.000200 
 9000.000000     0.000200 
 9060.000000     0.000200 
 9120.000000     0.000200 
 9180.000000     0.000200 
 9240.000000     0.000199 
 9300.000000     0.000199 
 9360.000000     0.000199 
 9420.000000     0.000199 
 9480.000000     0.000199 
 9540.000000     0.000199 
 9600.000000     0.000198 
 9660.000000     0.000198 
 9720.000000     0.000198 
 9780.000000     0.000198 
 9840.000000     0.000198 
 9900.000000     0.000197 
 9960.000000     0.000197 
10020.000000     0.000197 
10080.000000     0.000197 
10140.000000     0.000197 
10200.000000     0.000197 
10260.000000     0.000196 
10320.000000     0.000196 
10380.000000     0.000196 
10440.000000     0.000196 
10500.000000     0.000196 
10560.000000     0.000195 
10620.000000     0.000195 
10680.000000     0.000195 
10740.000000     0.000195 
10800.000000     0.000195 
10860.000000     0.000195 
10920.000000     0.000194 
10980.000000     0.000194 
11040.000000     0.000194 
11100.000000     0.000194 
11160.000000     0.000194 
11220.000000     0.000193 
11280.000000     0.000193 
11340.000000     0.000193 
11400.000000     0.000193 
11460.000000     0.000193 
11520.000000     0.000193 
11580.000000     0.000192 
11640.000000     0.000192 
11700.000000     0.000192 
11760.000000     0.000192 
11820.000000     0.000192 
11880.000000     0.000191 
11940.000000     0.000191 
12000.000000     0.000191 
12060.000000     0.000191 
12120.000000     0.000191 
12180.000000     0.000191 
12240.000000     0.000190 
12300.000000     0.000190 
12360.000000     0.000190 
12420.000000     0.000190 
12480.000000     0.000190 
12540.000000     0.000190 
12600.000000     0.000189 
12660.000000     0.000189 
12720.000000     0.000189 
12780.000000     0.000189 
12840.000000     0.000189 
12900.000000     0.000189 
12960.000000     0.000188 
13020.000000     0.000188 
13080.000000     0.000188 
13140.000000     0.000188 
13200.000000     0.000188 
13260.000000     0.000187 
13320.000000     0.000187 
13380.000000     0.000187 
13440.000000     0.000187 
13500.000000     0.000187 
13560.000000     0.000187 
13620.000000     0.000186 
13680.000000     0.000186 
13740.000000     0.000186 
13800.000000     0.000186 
13860.000000     0.000186 
13920.000000     0.000186 
13980.000000     0.000185 
14040.000000     0.000185 
14100.000000     0.000185 
14160.000000     0.000185 
14220.000000     0.000185 
14280.000000     0.000185 
14340.000000     0.000184 
14400.000000     0.000184 
14460.000000     0.000184 
14520.000000     0.000184 
14580.000000     0.000184 
14640.000000     0.000184 
14700.000000     0.000183 
14760.000000     0.000183 
14820.000000     0.000183 
14880.000000     0.000183 
14940.000000     0.000183 
15000.000000     0.000183 
15060.000000     0.000182 
15120.000000     0.000182 
15180.000000     0.000182 
15240.000000     0.000182 
15300.000000     0.000182 
15360.000000     0.000182 
15420.000000     0.000182 
15480.000000     0.000181 
15540.000000     0.000181 
15600.000000     0.000181 
15660.000000     0.000181 
15720.000000     0.000181 
15780.000000     0.000181 
15840.000000     0.000181 
15900.000000     0.000180 
15960.000000     0.000180 
16020.000000     0.000180 
16080.000000     0.000180 
16140.000000     0.000180 
16200.000000     0.000180 
16260.000000     0.000180 
16320.000000     0.000180 
16380.000000     0.000179 
16440.000000     0.000179 
16500.000000     0.000179 
16560.000000     0.000179 
16620.000000     0.000179 
16680.000000     0.000179 
16740.000000     0.000179 
16800.000000     0.000179 
16860.000000     0.000178 
16920.000000     0.000178 
16980.000000     0.000178 
17040.000000     0.000178 
17100.000000     0.000178 
17160.000000     0.000178 
17220.000000     0.000178 
17280.000000     0.000177 
17340.000000     0.000177 
17400.000000     0.000177 
17460.000000     0.000177 
17520.000000     0.000177 
17580.000000     0.000177 
17640.000000     0.000176 
17700.000000     0.000176 
17760.000000     0.000176 
17820.000000     0.000176 
17880.000000     0.000176 
17940.000000     0.000176 
18000.000000     0.000175 
18060.000000     0.000175 
18120.000000     0.000175 
18180.000000     0.000175 
18240.000000     0.000175 
18300.000000     0.000175 
18360.000000     0.000174 
18420.000000     0.000174 
18480.000000     0.000174 
18540.000000     0.000174 
18600.000000     0.000174 
18660.000000     0.000174 

[Forcing]
name       = 1057400L
function   = timeseries
timeInterpolation = linear
quantity   = time
unit       = minutes since 2010-11-09 00:00:00
quantity   = lateral_discharge
unit       = m3/s
    0.000000     0.000000 
   60.000000     0.000000 
  120.000000     0.000178 
  180.000000     0.000178 
  240.000000     0.000178 
  300.000000     0.000177 
  360.000000     0.000177 
  420.000000     0.000177 
  480.000000     0.000177 
  540.000000     0.000176 
  600.000000     0.000176 
  660.000000     0.000176 
  720.000000     0.000176 
  780.000000     0.000175 
  840.000000     0.000175 
  900.000000     0.000175 
  960.000000     0.000175 
 1020.000000     0.000175 
 1080.000000     0.000175 
 1140.000000     0.000174 
 1200.000000     0.000174 
 1260.000000     0.000174 
 1320.000000     0.000174 
 1380.000000     0.000174 
 1440.000000     0.000173 
 1500.000000     0.000173 
 1560.000000     0.000173 
 1620.000000     0.000173 
 1680.000000     0.000173 
 1740.000000     0.000173 
 1800.000000     0.000172 
 1860.000000     0.000172 
 1920.000000     0.000172 
 1980.000000     0.000172 
 2040.000000     0.000172 
 2100.000000     0.000172 
 2160.000000     0.000171 
 2220.000000     0.000171 
 2280.000000     0.000171 
 2340.000000     0.000171 
 2400.000000     0.000171 
 2460.000000     0.000171 
 2520.000000     0.000189 
 2580.000000     0.000189 
 2640.000000     0.000188 
 2700.000000     0.000187 
 2760.000000     0.000186 
 2820.000000     0.000186 
 2880.000000     0.000186 
 2940.000000     0.000195 
 3000.000000     0.000194 
 3060.000000     0.000193 
 3120.000000     0.000192 
 3180.000000     0.000191 
 3240.000000     0.000190 
 3300.000000     0.000189 
 3360.000000     0.000188 
 3420.000000     0.000187 
 3480.000000     0.000186 
 3540.000000     0.000185 
 3600.000000     0.000184 
 3660.000000     0.000183 
 3720.000000     0.000182 
 3780.000000     0.000181 
 3840.000000     0.000180 
 3900.000000     0.000179 
 3960.000000     0.000179 
 4020.000000     0.000178 
 4080.000000     0.000177 
 4140.000000     0.000176 
 4200.000000     0.000175 
 4260.000000     0.000175 
 4320.000000     0.000174 
 4380.000000     0.000173 
 4440.000000     0.000173 
 4500.000000     0.000172 
 4560.000000     0.000171 
 4620.000000     0.000171 
 4680.000000     0.000170 
 4740.000000     0.000169 
 4800.000000     0.000169 
 4860.000000     0.000168 
 4920.000000     0.000168 
 4980.000000     0.000168 
 5040.000000     0.000168 
 5100.000000     0.000168 
 5160.000000     0.000167 
 5220.000000     0.000167 
 5280.000000     0.000167 
 5340.000000     0.000167 
 5400.000000     0.000167 
 5460.000000     0.000167 
 5520.000000     0.000166 
 5580.000000     0.000166 
 5640.000000     0.000166 
 5700.000000     0.000166 
 5760.000000     0.000166 
 5820.000000     0.000166 
 5880.000000     0.000166 
 5940.000000     0.000165 
 6000.000000     0.000165 
 6060.000000     0.000165 
 6120.000000     0.000165 
 6180.000000     0.000165 
 6240.000000     0.000165 
 6300.000000     0.000165 
 6360.000000     0.000165 
 6420.000000     0.000164 
 6480.000000     0.000164 
 6540.000000     0.000164 
 6600.000000     0.000164 
 6660.000000     0.000164 
 6720.000000     0.000164 
 6780.000000     0.000164 
 6840.000000     0.000163 
 6900.000000     0.000163 
 6960.000000     0.000163 
 7020.000000     0.000163 
 7080.000000     0.000163 
 7140.000000     0.000163 
 7200.000000     0.000163 
 7260.000000     0.000163 
 7320.000000     0.000162 
 7380.000000     0.000162 
 7440.000000     0.000162 
 7500.000000     0.000162 
 7560.000000     0.000162 
 7620.000000     0.000162 
 7680.000000     0.000162 
 7740.000000     0.000161 
 7800.000000     0.000161 
 7860.000000     0.000161 
 7920.000000     0.000161 
 7980.000000     0.000161 
 8040.000000     0.000161 
 8100.000000     0.000161 
 8160.000000     0.000160 
 8220.000000     0.000160 
 8280.000000     0.000160 
 8340.000000     0.000160 
 8400.000000     0.000160 
 8460.000000     0.000160 
 8520.000000     0.000160 
 8580.000000     0.000159 
 8640.000000     0.000159 
 8700.000000     0.000159 
 8760.000000     0.000159 
 8820.000000     0.000159 
 8880.000000     0.000159 
 8940.000000     0.000159 
 9000.000000     0.000158 
 9060.000000     0.000158 
 9120.000000     0.000158 
 9180.000000     0.000158 
 9240.000000     0.000158 
 9300.000000     0.000158 
 9360.000000     0.000158 
 9420.000000     0.000157 
 9480.000000     0.000157 
 9540.000000     0.000157 
 9600.000000     0.000157 
 9660.000000     0.000157 
 9720.000000     0.000157 
 9780.000000     0.000157 
 9840.000000     0.000156 
 9900.000000     0.000156 
 9960.000000     0.000156 
10020.000000     0.000156 
10080.000000     0.000156 
10140.000000     0.000156 
10200.000000     0.000156 
10260.000000     0.000155 
10320.000000     0.000155 
10380.000000     0.000155 
10440.000000     0.000155 
10500.000000     0.000155 
10560.000000     0.000155 
10620.000000     0.000155 
10680.000000     0.000154 
10740.000000     0.000154 
10800.000000     0.000154 
10860.000000     0.000154 
10920.000000     0.000154 
10980.000000     0.000154 
11040.000000     0.000154 
11100.000000     0.000153 
11160.000000     0.000153 
11220.000000     0.000153 
11280.000000     0.000153 
11340.000000     0.000153 
11400.000000     0.000153 
11460.000000     0.000153 
11520.000000     0.000152 
11580.000000     0.000152 
11640.000000     0.000152 
11700.000000     0.000152 
11760.000000     0.000152 
11820.000000     0.000152 
11880.000000     0.000152 
11940.000000     0.000151 
12000.000000     0.000151 
12060.000000     0.000151 
12120.000000     0.000151 
12180.000000     0.000151 
12240.000000     0.000151 
12300.000000     0.000151 
12360.000000     0.000150 
12420.000000     0.000150 
12480.000000     0.000150 
12540.000000     0.000150 
12600.000000     0.000150 
12660.000000     0.000150 
12720.000000     0.000150 
12780.000000     0.000150 
12840.000000     0.000149 
12900.000000     0.000149 
12960.000000     0.000149 
13020.000000     0.000149 
13080.000000     0.000149 
13140.000000     0.000149 
13200.000000     0.000149 
13260.000000     0.000148 
13320.000000     0.000148 
13380.000000     0.000148 
13440.000000     0.000148 
13500.000000     0.000148 
13560.000000     0.000148 
13620.000000     0.000148 
13680.000000     0.000147 
13740.000000     0.000147 
13800.000000     0.000147 
13860.000000     0.000147 
13920.000000     0.000147 
13980.000000     0.000147 
14040.000000     0.000147 
14100.000000     0.000147 
14160.000000     0.000146 
14220.000000     0.000146 
14280.000000     0.000146 
14340.000000     0.000146 
14400.000000     0.000146 
14460.000000     0.000146 
14520.000000     0.000146 
14580.000000     0.000145 
14640.000000     0.000145 
14700.000000     0.000145 
14760.000000     0.000145 
14820.000000     0.000145 
14880.000000     0.000145 
14940.000000     0.000145 
15000.000000     0.000145 
15060.000000     0.000144 
15120.000000     0.000144 
15180.000000     0.000144 
15240.000000     0.000144 
15300.000000     0.000144 
15360.000000     0.000144 
15420.000000     0.000144 
15480.000000     0.000144 
15540.000000     0.000144 
15600.000000     0.000143 
15660.000000     0.000143 
15720.000000     0.000143 
15780.000000     0.000143 
15840.000000     0.000143 
15900.000000     0.000143 
15960.000000     0.000143 
16020.000000     0.000143 
16080.000000     0.000143 
16140.000000     0.000142 
16200.000000     0.000142 
16260.000000     0.000142 
16320.000000     0.000142 
16380.000000     0.000142 
16440.000000     0.000142 
16500.000000     0.000142 
16560.000000     0.000142 
16620.000000     0.000142 
16680.000000     0.000142 
16740.000000     0.000141 
16800.000000     0.000141 
16860.000000     0.000141 
16920.000000     0.000141 
16980.000000     0.000141 
17040.000000     0.000141 
17100.000000     0.000141 
17160.000000     0.000141 
17220.000000     0.000141 
17280.000000     0.000141 
17340.000000     0.000140 
17400.000000     0.000140 
17460.000000     0.000140 
17520.000000     0.000140 
17580.000000     0.000140 
17640.000000     0.000140 
17700.000000     0.000140 
17760.000000     0.000139 
17820.000000     0.000139 
17880.000000     0.000139 
17940.000000     0.000139 
18000.000000     0.000139 
18060.000000     0.000139 
18120.000000     0.000139 
18180.000000     0.000138 
18240.000000     0.000138 
18300.000000     0.000138 
18360.000000     0.000138 
18420.000000     0.000138 
18480.000000     0.000138 
18540.000000     0.000138 
18600.000000     0.000137 
18660.000000     0.000137 

[Forcing]
name       = 1050020L
function   = timeseries
timeInterpolation = linear
quantity   = time
unit       = minutes since 2010-11-09 00:00:00
quantity   = lateral_discharge
unit       = m3/s
    0.000000     0.000000 
   60.000000     0.000000 
  120.000000     0.000841 
  180.000000     0.000840 
  240.000000     0.000839 
  300.000000     0.000837 
  360.000000     0.000836 
  420.000000     0.000835 
  480.000000     0.000834 
  540.000000     0.000833 
  600.000000     0.000832 
  660.000000     0.000831 
  720.000000     0.000830 
  780.000000     0.000829 
  840.000000     0.000828 
  900.000000     0.000828 
  960.000000     0.000827 
 1020.000000     0.000826 
 1080.000000     0.000825 
 1140.000000     0.000824 
 1200.000000     0.000823 
 1260.000000     0.000822 
 1320.000000     0.000822 
 1380.000000     0.000820 
 1440.000000     0.000820 
 1500.000000     0.000819 
 1560.000000     0.000818 
 1620.000000     0.000817 
 1680.000000     0.000816 
 1740.000000     0.000816 
 1800.000000     0.000815 
 1860.000000     0.000814 
 1920.000000     0.000813 
 1980.000000     0.000812 
 2040.000000     0.000812 
 2100.000000     0.000811 
 2160.000000     0.000810 
 2220.000000     0.000809 
 2280.000000     0.000809 
 2340.000000     0.000808 
 2400.000000     0.000807 
 2460.000000     0.000806 
 2520.000000     0.000892 
 2580.000000     0.000894 
 2640.000000     0.000890 
 2700.000000     0.000885 
 2760.000000     0.000881 
 2820.000000     0.000877 
 2880.000000     0.000879 
 2940.000000     0.000920 
 3000.000000     0.000917 
 3060.000000     0.000912 
 3120.000000     0.000907 
 3180.000000     0.000902 
 3240.000000     0.000897 
 3300.000000     0.000892 
 3360.000000     0.000887 
 3420.000000     0.000882 
 3480.000000     0.000878 
 3540.000000     0.000873 
 3600.000000     0.000869 
 3660.000000     0.000864 
 3720.000000     0.000860 
 3780.000000     0.000856 
 3840.000000     0.000852 
 3900.000000     0.000848 
 3960.000000     0.000844 
 4020.000000     0.000840 
 4080.000000     0.000836 
 4140.000000     0.000833 
 4200.000000     0.000829 
 4260.000000     0.000826 
 4320.000000     0.000822 
 4380.000000     0.000819 
 4440.000000     0.000815 
 4500.000000     0.000812 
 4560.000000     0.000809 
 4620.000000     0.000806 
 4680.000000     0.000803 
 4740.000000     0.000800 
 4800.000000     0.000797 
 4860.000000     0.000795 
 4920.000000     0.000794 
 4980.000000     0.000793 
 5040.000000     0.000793 
 5100.000000     0.000792 
 5160.000000     0.000791 
 5220.000000     0.000790 
 5280.000000     0.000790 
 5340.000000     0.000789 
 5400.000000     0.000788 
 5460.000000     0.000788 
 5520.000000     0.000787 
 5580.000000     0.000786 
 5640.000000     0.000785 
 5700.000000     0.000785 
 5760.000000     0.000784 
 5820.000000     0.000783 
 5880.000000     0.000783 
 5940.000000     0.000782 
 6000.000000     0.000782 
 6060.000000     0.000781 
 6120.000000     0.000780 
 6180.000000     0.000780 
 6240.000000     0.000779 
 6300.000000     0.000779 
 6360.000000     0.000778 
 6420.000000     0.000777 
 6480.000000     0.000777 
 6540.000000     0.000776 
 6600.000000     0.000775 
 6660.000000     0.000775 
 6720.000000     0.000774 
 6780.000000     0.000773 
 6840.000000     0.000772 
 6900.000000     0.000772 
 6960.000000     0.000771 
 7020.000000     0.000771 
 7080.000000     0.000770 
 7140.000000     0.000769 
 7200.000000     0.000769 
 7260.000000     0.000768 
 7320.000000     0.000767 
 7380.000000     0.000767 
 7440.000000     0.000766 
 7500.000000     0.000765 
 7560.000000     0.000765 
 7620.000000     0.000764 
 7680.000000     0.000763 
 7740.000000     0.000763 
 7800.000000     0.000762 
 7860.000000     0.000761 
 7920.000000     0.000761 
 7980.000000     0.000760 
 8040.000000     0.000759 
 8100.000000     0.000759 
 8160.000000     0.000758 
 8220.000000     0.000757 
 8280.000000     0.000757 
 8340.000000     0.000756 
 8400.000000     0.000755 
 8460.000000     0.000755 
 8520.000000     0.000754 
 8580.000000     0.000753 
 8640.000000     0.000753 
 8700.000000     0.000752 
 8760.000000     0.000751 
 8820.000000     0.000751 
 8880.000000     0.000750 
 8940.000000     0.000749 
 9000.000000     0.000749 
 9060.000000     0.000748 
 9120.000000     0.000747 
 9180.000000     0.000747 
 9240.000000     0.000746 
 9300.000000     0.000745 
 9360.000000     0.000745 
 9420.000000     0.000744 
 9480.000000     0.000743 
 9540.000000     0.000743 
 9600.000000     0.000742 
 9660.000000     0.000741 
 9720.000000     0.000741 
 9780.000000     0.000740 
 9840.000000     0.000739 
 9900.000000     0.000739 
 9960.000000     0.000738 
10020.000000     0.000737 
10080.000000     0.000737 
10140.000000     0.000736 
10200.000000     0.000735 
10260.000000     0.000735 
10320.000000     0.000734 
10380.000000     0.000733 
10440.000000     0.000733 
10500.000000     0.000732 
10560.000000     0.000731 
10620.000000     0.000731 
10680.000000     0.000730 
10740.000000     0.000729 
10800.000000     0.000729 
10860.000000     0.000728 
10920.000000     0.000727 
10980.000000     0.000727 
11040.000000     0.000726 
11100.000000     0.000725 
11160.000000     0.000724 
11220.000000     0.000724 
11280.000000     0.000723 
11340.000000     0.000722 
11400.000000     0.000722 
11460.000000     0.000721 
11520.000000     0.000720 
11580.000000     0.000720 
11640.000000     0.000719 
11700.000000     0.000718 
11760.000000     0.000718 
11820.000000     0.000717 
11880.000000     0.000716 
11940.000000     0.000716 
12000.000000     0.000715 
12060.000000     0.000714 
12120.000000     0.000714 
12180.000000     0.000713 
12240.000000     0.000712 
12300.000000     0.000712 
12360.000000     0.000711 
12420.000000     0.000710 
12480.000000     0.000710 
12540.000000     0.000709 
12600.000000     0.000709 
12660.000000     0.000708 
12720.000000     0.000707 
12780.000000     0.000707 
12840.000000     0.000706 
12900.000000     0.000705 
12960.000000     0.000705 
13020.000000     0.000704 
13080.000000     0.000703 
13140.000000     0.000703 
13200.000000     0.000702 
13260.000000     0.000701 
13320.000000     0.000700 
13380.000000     0.000700 
13440.000000     0.000699 
13500.000000     0.000698 
13560.000000     0.000698 
13620.000000     0.000697 
13680.000000     0.000697 
13740.000000     0.000696 
13800.000000     0.000695 
13860.000000     0.000695 
13920.000000     0.000694 
13980.000000     0.000694 
14040.000000     0.000693 
14100.000000     0.000692 
14160.000000     0.000692 
14220.000000     0.000691 
14280.000000     0.000690 
14340.000000     0.000690 
14400.000000     0.000689 
14460.000000     0.000689 
14520.000000     0.000688 
14580.000000     0.000687 
14640.000000     0.000687 
14700.000000     0.000686 
14760.000000     0.000685 
14820.000000     0.000685 
14880.000000     0.000684 
14940.000000     0.000684 
15000.000000     0.000683 
15060.000000     0.000682 
15120.000000     0.000682 
15180.000000     0.000681 
15240.000000     0.000681 
15300.000000     0.000680 
15360.000000     0.000680 
15420.000000     0.000679 
15480.000000     0.000679 
15540.000000     0.000678 
15600.000000     0.000678 
15660.000000     0.000677 
15720.000000     0.000677 
15780.000000     0.000676 
15840.000000     0.000676 
15900.000000     0.000675 
15960.000000     0.000675 
16020.000000     0.000674 
16080.000000     0.000674 
16140.000000     0.000673 
16200.000000     0.000673 
16260.000000     0.000672 
16320.000000     0.000672 
16380.000000     0.000671 
16440.000000     0.000671 
16500.000000     0.000670 
16560.000000     0.000670 
16620.000000     0.000669 
16680.000000     0.000669 
16740.000000     0.000668 
16800.000000     0.000668 
16860.000000     0.000667 
16920.000000     0.000667 
16980.000000     0.000666 
17040.000000     0.000666 
17100.000000     0.000665 
17160.000000     0.000665 
17220.000000     0.000664 
17280.000000     0.000664 
17340.000000     0.000663 
17400.000000     0.000663 
17460.000000     0.000662 
17520.000000     0.000662 
17580.000000     0.000661 
17640.000000     0.000660 
17700.000000     0.000660 
17760.000000     0.000659 
17820.000000     0.000658 
17880.000000     0.000658 
17940.000000     0.000657 
18000.000000     0.000656 
18060.000000     0.000656 
18120.000000     0.000655 
18180.000000     0.000654 
18240.000000     0.000653 
18300.000000     0.000653 
18360.000000     0.000652 
18420.000000     0.000651 
18480.000000     0.000651 
18540.000000     0.000650 
18600.000000     0.000649 
18660.000000     0.000649 

[Forcing]
name       = 1050120L
function   = timeseries
timeInterpolation = linear
quantity   = time
unit       = minutes since 2010-11-09 00:00:00
quantity   = lateral_discharge
unit       = m3/s
    0.000000     0.000000 
   60.000000     0.000000 
  120.000000     0.007354 
  180.000000     0.007342 
  240.000000     0.007330 
  300.000000     0.007318 
  360.000000     0.007310 
  420.000000     0.007301 
  480.000000     0.007292 
  540.000000     0.007283 
  600.000000     0.007274 
  660.000000     0.007265 
  720.000000     0.007256 
  780.000000     0.007248 
  840.000000     0.007239 
  900.000000     0.007233 
  960.000000     0.007224 
 1020.000000     0.007215 
 1080.000000     0.007209 
 1140.000000     0.007200 
 1200.000000     0.007194 
 1260.000000     0.007185 
 1320.000000     0.007180 
 1380.000000     0.007171 
 1440.000000     0.007165 
 1500.000000     0.007156 
 1560.000000     0.007150 
 1620.000000     0.007144 
 1680.000000     0.007135 
 1740.000000     0.007129 
 1800.000000     0.007120 
 1860.000000     0.007115 
 1920.000000     0.007109 
 1980.000000     0.007100 
 2040.000000     0.007094 
 2100.000000     0.007088 
 2160.000000     0.007079 
 2220.000000     0.007073 
 2280.000000     0.007067 
 2340.000000     0.007061 
 2400.000000     0.007053 
 2460.000000     0.007047 
 2520.000000     0.007797 
 2580.000000     0.007812 
 2640.000000     0.007776 
 2700.000000     0.007738 
 2760.000000     0.007700 
 2820.000000     0.007664 
 2880.000000     0.007685 
 2940.000000     0.008039 
 3000.000000     0.008013 
 3060.000000     0.007968 
 3120.000000     0.007924 
 3180.000000     0.007880 
 3240.000000     0.007838 
 3300.000000     0.007794 
 3360.000000     0.007753 
 3420.000000     0.007711 
 3480.000000     0.007673 
 3540.000000     0.007632 
 3600.000000     0.007593 
 3660.000000     0.007555 
 3720.000000     0.007516 
 3780.000000     0.007481 
 3840.000000     0.007445 
 3900.000000     0.007410 
 3960.000000     0.007378 
 4020.000000     0.007342 
 4080.000000     0.007310 
 4140.000000     0.007277 
 4200.000000     0.007248 
 4260.000000     0.007215 
 4320.000000     0.007185 
 4380.000000     0.007156 
 4440.000000     0.007126 
 4500.000000     0.007100 
 4560.000000     0.007070 
 4620.000000     0.007044 
 4680.000000     0.007017 
 4740.000000     0.006993 
 4800.000000     0.006967 
 4860.000000     0.006949 
 4920.000000     0.006940 
 4980.000000     0.006934 
 5040.000000     0.006928 
 5100.000000     0.006920 
 5160.000000     0.006914 
 5220.000000     0.006908 
 5280.000000     0.006902 
 5340.000000     0.006896 
 5400.000000     0.006890 
 5460.000000     0.006884 
 5520.000000     0.006875 
 5580.000000     0.006869 
 5640.000000     0.006863 
 5700.000000     0.006858 
 5760.000000     0.006852 
 5820.000000     0.006846 
 5880.000000     0.006840 
 5940.000000     0.006834 
 6000.000000     0.006831 
 6060.000000     0.006825 
 6120.000000     0.006819 
 6180.000000     0.006816 
 6240.000000     0.006810 
 6300.000000     0.006804 
 6360.000000     0.006798 
 6420.000000     0.006793 
 6480.000000     0.006787 
 6540.000000     0.006781 
 6600.000000     0.006775 
 6660.000000     0.006769 
 6720.000000     0.006763 
 6780.000000     0.006757 
 6840.000000     0.006751 
 6900.000000     0.006745 
 6960.000000     0.006742 
 7020.000000     0.006736 
 7080.000000     0.006730 
 7140.000000     0.006722 
 7200.000000     0.006719 
 7260.000000     0.006713 
 7320.000000     0.006707 
 7380.000000     0.006701 
 7440.000000     0.006695 
 7500.000000     0.006689 
 7560.000000     0.006683 
 7620.000000     0.006677 
 7680.000000     0.006671 
 7740.000000     0.006665 
 7800.000000     0.006660 
 7860.000000     0.006654 
 7920.000000     0.006648 
 7980.000000     0.006642 
 8040.000000     0.006636 
 8100.000000     0.006630 
 8160.000000     0.006624 
 8220.000000     0.006618 
 8280.000000     0.006612 
 8340.000000     0.006606 
 8400.000000     0.006600 
 8460.000000     0.006595 
 8520.000000     0.006589 
 8580.000000     0.006583 
 8640.000000     0.006577 
 8700.000000     0.006571 
 8760.000000     0.006565 
 8820.000000     0.006559 
 8880.000000     0.006556 
 8940.000000     0.006550 
 9000.000000     0.006544 
 9060.000000     0.006538 
 9120.000000     0.006533 
 9180.000000     0.006527 
 9240.000000     0.006521 
 9300.000000     0.006515 
 9360.000000     0.006509 
 9420.000000     0.006503 
 9480.000000     0.006497 
 9540.000000     0.006491 
 9600.000000     0.006485 
 9660.000000     0.006479 
 9720.000000     0.006473 
 9780.000000     0.006468 
 9840.000000     0.006462 
 9900.000000     0.006456 
 9960.000000     0.006450 
10020.000000     0.006444 
10080.000000     0.006438 
10140.000000     0.006432 
10200.000000     0.006426 
10260.000000     0.006420 
10320.000000     0.006414 
10380.000000     0.006408 
10440.000000     0.006403 
10500.000000     0.006397 
10560.000000     0.006391 
10620.000000     0.006385 
10680.000000     0.006379 
10740.000000     0.006373 
10800.000000     0.006367 
10860.000000     0.006361 
10920.000000     0.006355 
10980.000000     0.006349 
11040.000000     0.006343 
11100.000000     0.006338 
11160.000000     0.006332 
11220.000000     0.006326 
11280.000000     0.006320 
11340.000000     0.006314 
11400.000000     0.006308 
11460.000000     0.006302 
11520.000000     0.006296 
11580.000000     0.006290 
11640.000000     0.006284 
11700.000000     0.006278 
11760.000000     0.006273 
11820.000000     0.006267 
11880.000000     0.006261 
11940.000000     0.006255 
12000.000000     0.006249 
12060.000000     0.006243 
12120.000000     0.006237 
12180.000000     0.006231 
12240.000000     0.006225 
12300.000000     0.006219 
12360.000000     0.006213 
12420.000000     0.006208 
12480.000000     0.006202 
12540.000000     0.006196 
12600.000000     0.006193 
12660.000000     0.006187 
12720.000000     0.006181 
12780.000000     0.006175 
12840.000000     0.006169 
12900.000000     0.006163 
12960.000000     0.006157 
13020.000000     0.006151 
13080.000000     0.006145 
13140.000000     0.006140 
13200.000000     0.006134 
13260.000000     0.006128 
13320.000000     0.006122 
13380.000000     0.006116 
13440.000000     0.006110 
13500.000000     0.006104 
13560.000000     0.006101 
13620.000000     0.006095 
13680.000000     0.006089 
13740.000000     0.006083 
13800.000000     0.006078 
13860.000000     0.006072 
13920.000000     0.006069 
13980.000000     0.006063 
14040.000000     0.006057 
14100.000000     0.006051 
14160.000000     0.006045 
14220.000000     0.006039 
14280.000000     0.006033 
14340.000000     0.006030 
14400.000000     0.006024 
14460.000000     0.006018 
14520.000000     0.006013 
14580.000000     0.006007 
14640.000000     0.006001 
14700.000000     0.005995 
14760.000000     0.005989 
14820.000000     0.005986 
14880.000000     0.005980 
14940.000000     0.005974 
15000.000000     0.005968 
15060.000000     0.005962 
15120.000000     0.005959 
15180.000000     0.005953 
15240.000000     0.005950 
15300.000000     0.005945 
15360.000000     0.005942 
15420.000000     0.005936 
15480.000000     0.005933 
15540.000000     0.005927 
15600.000000     0.005924 
15660.000000     0.005918 
15720.000000     0.005915 
15780.000000     0.005909 
15840.000000     0.005906 
15900.000000     0.005900 
15960.000000     0.005897 
16020.000000     0.005891 
16080.000000     0.005888 
16140.000000     0.005883 
16200.000000     0.005880 
16260.000000     0.005877 
16320.000000     0.005871 
16380.000000     0.005868 
16440.000000     0.005865 
16500.000000     0.005859 
16560.000000     0.005856 
16620.000000     0.005850 
16680.000000     0.005847 
16740.000000     0.005841 
16800.000000     0.005838 
16860.000000     0.005832 
16920.000000     0.005829 
16980.000000     0.005823 
17040.000000     0.005820 
17100.000000     0.005815 
17160.000000     0.005812 
17220.000000     0.005806 
17280.000000     0.005803 
17340.000000     0.005797 
17400.000000     0.005794 
17460.000000     0.005788 
17520.000000     0.005782 
17580.000000     0.005776 
17640.000000     0.005770 
17700.000000     0.005764 
17760.000000     0.005758 
17820.000000     0.005753 
17880.000000     0.005747 
17940.000000     0.005741 
18000.000000     0.005735 
18060.000000     0.005729 
18120.000000     0.005723 
18180.000000     0.005717 
18240.000000     0.005711 
18300.000000     0.005705 
18360.000000     0.005699 
18420.000000     0.005693 
18480.000000     0.005688 
18540.000000     0.005682 
18600.000000     0.005676 
18660.000000     0.005673 

[Forcing]
name       = 1050545L
function   = timeseries
timeInterpolation = linear
quantity   = time
unit       = minutes since 2010-11-09 00:00:00
quantity   = lateral_discharge
unit       = m3/s
    0.000000     0.000000 
   60.000000     0.000000 
  120.000000     0.000694 
  180.000000     0.000693 
  240.000000     0.000691 
  300.000000     0.000690 
  360.000000     0.000689 
  420.000000     0.000689 
  480.000000     0.000688 
  540.000000     0.000687 
  600.000000     0.000686 
  660.000000     0.000685 
  720.000000     0.000684 
  780.000000     0.000684 
  840.000000     0.000683 
  900.000000     0.000682 
  960.000000     0.000681 
 1020.000000     0.000681 
 1080.000000     0.000680 
 1140.000000     0.000679 
 1200.000000     0.000679 
 1260.000000     0.000678 
 1320.000000     0.000677 
 1380.000000     0.000676 
 1440.000000     0.000676 
 1500.000000     0.000675 
 1560.000000     0.000674 
 1620.000000     0.000674 
 1680.000000     0.000673 
 1740.000000     0.000672 
 1800.000000     0.000672 
 1860.000000     0.000671 
 1920.000000     0.000670 
 1980.000000     0.000670 
 2040.000000     0.000669 
 2100.000000     0.000669 
 2160.000000     0.000668 
 2220.000000     0.000667 
 2280.000000     0.000667 
 2340.000000     0.000666 
 2400.000000     0.000665 
 2460.000000     0.000665 
 2520.000000     0.000735 
 2580.000000     0.000737 
 2640.000000     0.000733 
 2700.000000     0.000730 
 2760.000000     0.000726 
 2820.000000     0.000723 
 2880.000000     0.000725 
 2940.000000     0.000758 
 3000.000000     0.000756 
 3060.000000     0.000752 
 3120.000000     0.000747 
 3180.000000     0.000743 
 3240.000000     0.000739 
 3300.000000     0.000735 
 3360.000000     0.000731 
 3420.000000     0.000727 
 3480.000000     0.000724 
 3540.000000     0.000720 
 3600.000000     0.000716 
 3660.000000     0.000713 
 3720.000000     0.000709 
 3780.000000     0.000706 
 3840.000000     0.000702 
 3900.000000     0.000699 
 3960.000000     0.000696 
 4020.000000     0.000693 
 4080.000000     0.000689 
 4140.000000     0.000686 
 4200.000000     0.000684 
 4260.000000     0.000681 
 4320.000000     0.000678 
 4380.000000     0.000675 
 4440.000000     0.000672 
 4500.000000     0.000670 
 4560.000000     0.000667 
 4620.000000     0.000664 
 4680.000000     0.000662 
 4740.000000     0.000660 
 4800.000000     0.000657 
 4860.000000     0.000655 
 4920.000000     0.000655 
 4980.000000     0.000654 
 5040.000000     0.000653 
 5100.000000     0.000653 
 5160.000000     0.000652 
 5220.000000     0.000652 
 5280.000000     0.000651 
 5340.000000     0.000650 
 5400.000000     0.000650 
 5460.000000     0.000649 
 5520.000000     0.000648 
 5580.000000     0.000648 
 5640.000000     0.000647 
 5700.000000     0.000647 
 5760.000000     0.000646 
 5820.000000     0.000646 
 5880.000000     0.000645 
 5940.000000     0.000645 
 6000.000000     0.000644 
 6060.000000     0.000644 
 6120.000000     0.000643 
 6180.000000     0.000643 
 6240.000000     0.000642 
 6300.000000     0.000642 
 6360.000000     0.000641 
 6420.000000     0.000641 
 6480.000000     0.000640 
 6540.000000     0.000640 
 6600.000000     0.000639 
 6660.000000     0.000638 
 6720.000000     0.000638 
 6780.000000     0.000637 
 6840.000000     0.000637 
 6900.000000     0.000636 
 6960.000000     0.000636 
 7020.000000     0.000635 
 7080.000000     0.000635 
 7140.000000     0.000634 
 7200.000000     0.000634 
 7260.000000     0.000633 
 7320.000000     0.000633 
 7380.000000     0.000632 
 7440.000000     0.000631 
 7500.000000     0.000631 
 7560.000000     0.000630 
 7620.000000     0.000630 
 7680.000000     0.000629 
 7740.000000     0.000629 
 7800.000000     0.000628 
 7860.000000     0.000628 
 7920.000000     0.000627 
 7980.000000     0.000626 
 8040.000000     0.000626 
 8100.000000     0.000625 
 8160.000000     0.000625 
 8220.000000     0.000624 
 8280.000000     0.000624 
 8340.000000     0.000623 
 8400.000000     0.000623 
 8460.000000     0.000622 
 8520.000000     0.000621 
 8580.000000     0.000621 
 8640.000000     0.000620 
 8700.000000     0.000620 
 8760.000000     0.000619 
 8820.000000     0.000619 
 8880.000000     0.000618 
 8940.000000     0.000618 
 9000.000000     0.000617 
 9060.000000     0.000617 
 9120.000000     0.000616 
 9180.000000     0.000616 
 9240.000000     0.000615 
 9300.000000     0.000614 
 9360.000000     0.000614 
 9420.000000     0.000613 
 9480.000000     0.000613 
 9540.000000     0.000612 
 9600.000000     0.000612 
 9660.000000     0.000611 
 9720.000000     0.000611 
 9780.000000     0.000610 
 9840.000000     0.000609 
 9900.000000     0.000609 
 9960.000000     0.000608 
10020.000000     0.000608 
10080.000000     0.000607 
10140.000000     0.000607 
10200.000000     0.000606 
10260.000000     0.000606 
10320.000000     0.000605 
10380.000000     0.000604 
10440.000000     0.000604 
10500.000000     0.000603 
10560.000000     0.000603 
10620.000000     0.000602 
10680.000000     0.000602 
10740.000000     0.000601 
10800.000000     0.000601 
10860.000000     0.000600 
10920.000000     0.000599 
10980.000000     0.000599 
11040.000000     0.000598 
11100.000000     0.000598 
11160.000000     0.000597 
11220.000000     0.000597 
11280.000000     0.000596 
11340.000000     0.000596 
11400.000000     0.000595 
11460.000000     0.000594 
11520.000000     0.000594 
11580.000000     0.000593 
11640.000000     0.000593 
11700.000000     0.000592 
11760.000000     0.000592 
11820.000000     0.000591 
11880.000000     0.000591 
11940.000000     0.000590 
12000.000000     0.000589 
12060.000000     0.000589 
12120.000000     0.000588 
12180.000000     0.000588 
12240.000000     0.000587 
12300.000000     0.000587 
12360.000000     0.000586 
12420.000000     0.000585 
12480.000000     0.000585 
12540.000000     0.000584 
12600.000000     0.000584 
12660.000000     0.000584 
12720.000000     0.000583 
12780.000000     0.000582 
12840.000000     0.000582 
12900.000000     0.000581 
12960.000000     0.000581 
13020.000000     0.000580 
13080.000000     0.000580 
13140.000000     0.000579 
13200.000000     0.000579 
13260.000000     0.000578 
13320.000000     0.000577 
13380.000000     0.000577 
13440.000000     0.000576 
13500.000000     0.000576 
13560.000000     0.000575 
13620.000000     0.000575 
13680.000000     0.000574 
13740.000000     0.000574 
13800.000000     0.000573 
13860.000000     0.000573 
13920.000000     0.000572 
13980.000000     0.000572 
14040.000000     0.000571 
14100.000000     0.000571 
14160.000000     0.000570 
14220.000000     0.000570 
14280.000000     0.000569 
14340.000000     0.000569 
14400.000000     0.000568 
14460.000000     0.000568 
14520.000000     0.000567 
14580.000000     0.000567 
14640.000000     0.000566 
14700.000000     0.000565 
14760.000000     0.000565 
14820.000000     0.000565 
14880.000000     0.000564 
14940.000000     0.000563 
15000.000000     0.000563 
15060.000000     0.000562 
15120.000000     0.000562 
15180.000000     0.000562 
15240.000000     0.000561 
15300.000000     0.000561 
15360.000000     0.000560 
15420.000000     0.000560 
15480.000000     0.000560 
15540.000000     0.000559 
15600.000000     0.000559 
15660.000000     0.000558 
15720.000000     0.000558 
15780.000000     0.000557 
15840.000000     0.000557 
15900.000000     0.000557 
15960.000000     0.000556 
16020.000000     0.000556 
16080.000000     0.000555 
16140.000000     0.000555 
16200.000000     0.000555 
16260.000000     0.000554 
16320.000000     0.000554 
16380.000000     0.000553 
16440.000000     0.000553 
16500.000000     0.000553 
16560.000000     0.000552 
16620.000000     0.000552 
16680.000000     0.000551 
16740.000000     0.000551 
16800.000000     0.000551 
16860.000000     0.000550 
16920.000000     0.000550 
16980.000000     0.000549 
17040.000000     0.000549 
17100.000000     0.000548 
17160.000000     0.000548 
17220.000000     0.000548 
17280.000000     0.000547 
17340.000000     0.000547 
17400.000000     0.000546 
17460.000000     0.000546 
17520.000000     0.000545 
17580.000000     0.000545 
17640.000000     0.000544 
17700.000000     0.000544 
17760.000000     0.000543 
17820.000000     0.000543 
17880.000000     0.000542 
17940.000000     0.000541 
18000.000000     0.000541 
18060.000000     0.000540 
18120.000000     0.000540 
18180.000000     0.000539 
18240.000000     0.000539 
18300.000000     0.000538 
18360.000000     0.000538 
18420.000000     0.000537 
18480.000000     0.000536 
18540.000000     0.000536 
18600.000000     0.000535 
18660.000000     0.000535 

[Forcing]
name       = 1051250L
function   = timeseries
timeInterpolation = linear
quantity   = time
unit       = minutes since 2010-11-09 00:00:00
quantity   = lateral_discharge
unit       = m3/s
    0.000000     0.000000 
   60.000000     0.000000 
  120.000000     0.000964 
  180.000000     0.000963 
  240.000000     0.000961 
  300.000000     0.000960 
  360.000000     0.000958 
  420.000000     0.000957 
  480.000000     0.000956 
  540.000000     0.000955 
  600.000000     0.000954 
  660.000000     0.000953 
  720.000000     0.000951 
  780.000000     0.000950 
  840.000000     0.000949 
  900.000000     0.000948 
  960.000000     0.000947 
 1020.000000     0.000946 
 1080.000000     0.000945 
 1140.000000     0.000944 
 1200.000000     0.000943 
 1260.000000     0.000942 
 1320.000000     0.000941 
 1380.000000     0.000940 
 1440.000000     0.000939 
 1500.000000     0.000938 
 1560.000000     0.000938 
 1620.000000     0.000937 
 1680.000000     0.000936 
 1740.000000     0.000935 
 1800.000000     0.000934 
 1860.000000     0.000933 
 1920.000000     0.000932 
 1980.000000     0.000931 
 2040.000000     0.000930 
 2100.000000     0.000929 
 2160.000000     0.000928 
 2220.000000     0.000927 
 2280.000000     0.000927 
 2340.000000     0.000926 
 2400.000000     0.000925 
 2460.000000     0.000924 
 2520.000000     0.001022 
 2580.000000     0.001024 
 2640.000000     0.001020 
 2700.000000     0.001015 
 2760.000000     0.001010 
 2820.000000     0.001005 
 2880.000000     0.001008 
 2940.000000     0.001054 
 3000.000000     0.001051 
 3060.000000     0.001045 
 3120.000000     0.001039 
 3180.000000     0.001033 
 3240.000000     0.001028 
 3300.000000     0.001022 
 3360.000000     0.001017 
 3420.000000     0.001011 
 3480.000000     0.001006 
 3540.000000     0.001001 
 3600.000000     0.000996 
 3660.000000     0.000991 
 3720.000000     0.000986 
 3780.000000     0.000981 
[...]
12660.000000     0.000000 
12720.000000     0.000000 
12780.000000     0.000000 
12840.000000     0.000000 
12900.000000     0.000000 
12960.000000     0.000000 
13020.000000     0.000000 
13080.000000     0.000000 
13140.000000     0.000000 
13200.000000     0.000000 
13260.000000     0.000000 
13320.000000     0.000000 
13380.000000     0.000000 
13440.000000     0.000000 
13500.000000     0.000000 
13560.000000     0.000000 
13620.000000     0.000000 
13680.000000     0.000000 
13740.000000     0.000000 
13800.000000     0.000000 
13860.000000     0.000000 
13920.000000     0.000000 
13980.000000     0.000000 
14040.000000     0.000000 
14100.000000     0.000000 
14160.000000     0.000000 
14220.000000     0.000000 
14280.000000     0.000000 
14340.000000     0.000000 
14400.000000     0.000000 
14460.000000     0.000000 
14520.000000     0.000000 
14580.000000     0.000000 
14640.000000     0.000000 
14700.000000     0.000000 
14760.000000     0.000000 
14820.000000     0.000000 
14880.000000     0.000000 
14940.000000     0.000000 
15000.000000     0.000000 
15060.000000     0.000000 
15120.000000     0.000000 
15180.000000     0.000000 
15240.000000     0.000000 
15300.000000     0.000000 
15360.000000     0.000000 
15420.000000     0.000000 
15480.000000     0.000000 
15540.000000     0.000000 
15600.000000     0.000000 
15660.000000     0.000000 
15720.000000     0.000000 
15780.000000     0.000000 
15840.000000     0.000000 
15900.000000     0.000000 
15960.000000     0.000000 
16020.000000     0.000000 
16080.000000     0.000000 
16140.000000     0.000000 
16200.000000     0.000000 
16260.000000     0.000000 
16320.000000     0.000000 
16380.000000     0.000000 
16440.000000     0.000000 
16500.000000     0.000000 
16560.000000     0.000000 
16620.000000     0.000000 
16680.000000     0.000000 
16740.000000     0.000000 
16800.000000     0.000000 
16860.000000     0.000000 
16920.000000     0.000000 
16980.000000     0.000000 
17040.000000     0.000000 
17100.000000     0.000000 
17160.000000     0.000000 
17220.000000     0.000000 
17280.000000     0.000000 
17340.000000     0.000000 
17400.000000     0.000000 
17460.000000     0.000000 
17520.000000     0.000000 
17580.000000     0.000000 
17640.000000     0.000000 
17700.000000     0.000000 
17760.000000     0.000000 
17820.000000     0.000000 
17880.000000     0.000000 
17940.000000     0.000000 
18000.000000     0.000000 
18060.000000     0.000000 
18120.000000     0.000000 
18180.000000     0.000000 
18240.000000     0.000000 
18300.000000     0.000000 
18360.000000     0.000000 
18420.000000     0.000000 
18480.000000     0.000000 
18540.000000     0.000000 
18600.000000     0.000000 
18660.000000     0.000000 

[Forcing]
name       = LAN-ZEE-ROS-13
function   = timeseries
timeInterpolation = linear
quantity   = time
unit       = minutes since 2010-11-09 00:00:00
quantity   = lateral_discharge
unit       = m3/s
    0.000000     0.000000 
   60.000000     0.000000 
  120.000000     0.001111 
  180.000000     0.000000 
  240.000000     0.000000 
  300.000000     0.000000 
  360.000000     0.000000 
  420.000000     0.000000 
  480.000000     0.000000 
  540.000000     0.000000 
  600.000000     0.000000 
  660.000000     0.000000 
  720.000000     0.000000 
  780.000000     0.000000 
  840.000000     0.000000 
  900.000000     0.000000 
  960.000000     0.000000 
 1020.000000     0.000000 
 1080.000000     0.000000 
 1140.000000     0.000000 
 1200.000000     0.000000 
 1260.000000     0.000000 
 1320.000000     0.000000 
 1380.000000     0.000000 
 1440.000000     0.000000 
 1500.000000     0.000000 
 1560.000000     0.000000 
 1620.000000     0.003333 
 1680.000000     0.004444 
 1740.000000     0.001111 
 1800.000000     0.003333 
 1860.000000     0.003333 
 1920.000000     0.000278 
 1980.000000     0.000833 
 2040.000000     0.000000 
 2100.000000     0.000833 
 2160.000000     0.000000 
 2220.000000     0.000000 
 2280.000000     0.000000 
 2340.000000     0.000000 
 2400.000000     0.000000 
 2460.000000     0.000000 
 2520.000000     0.000000 
 2580.000000     0.000000 
 2640.000000     0.000000 
 2700.000000     0.000000 
 2760.000000     0.000000 
 2820.000000     0.000000 
 2880.000000     0.000000 
 2940.000000     0.000000 
 3000.000000     0.000000 
 3060.000000     0.000000 
 3120.000000     0.000000 
 3180.000000     0.000000 
 3240.000000     0.000000 
 3300.000000     0.000000 
 3360.000000     0.000000 
 3420.000000     0.000000 
 3480.000000     0.000000 
 3540.000000     0.000000 
 3600.000000     0.001389 
 3660.000000     0.006389 
 3720.000000     0.010833 
 3780.000000     0.001944 
 3840.000000     0.000000 
 3900.000000     0.000833 
 3960.000000     0.002222 
 4020.000000     0.000556 
 4080.000000     0.000000 
 4140.000000     0.000000 
 4200.000000     0.000000 
 4260.000000     0.000000 
 4320.000000     0.000000 
 4380.000000     0.000000 
 4440.000000     0.000000 
 4500.000000     0.000000 
 4560.000000     0.000000 
 4620.000000     0.000000 
 4680.000000     0.000000 
 4740.000000     0.000000 
 4800.000000     0.000000 
 4860.000000     0.000000 
 4920.000000     0.000000 
 4980.000000     0.000000 
 5040.000000     0.000000 
 5100.000000     0.000000 
 5160.000000     0.000000 
 5220.000000     0.000000 
 5280.000000     0.001389 
 5340.000000     0.006667 
 5400.000000     0.004444 
 5460.000000     0.008056 
 5520.000000     0.019444 
 5580.000000     0.008889 
 5640.000000     0.009444 
 5700.000000     0.002222 
 5760.000000     0.013056 
 5820.000000     0.009722 
 5880.000000     0.002222 
 5940.000000     0.001667 
 6000.000000     0.003333 
 6060.000000     0.000000 
 6120.000000     0.000000 
 6180.000000     0.000000 
 6240.000000     0.000000 
 6300.000000     0.000000 
 6360.000000     0.000000 
 6420.000000     0.000000 
 6480.000000     0.000000 
 6540.000000     0.000000 
 6600.000000     0.000000 
 6660.000000     0.000000 
 6720.000000     0.004167 
 6780.000000     0.005556 
 6840.000000     0.002222 
 6900.000000     0.001389 
 6960.000000     0.002222 
 7020.000000     0.000000 
 7080.000000     0.000000 
 7140.000000     0.000000 
 7200.000000     0.000000 
 7260.000000     0.000000 
 7320.000000     0.000000 
 7380.000000     0.000000 
 7440.000000     0.000000 
 7500.000000     0.000278 
 7560.000000     0.001389 
 7620.000000     0.003333 
 7680.000000     0.001944 
 7740.000000     0.000278 
 7800.000000     0.000000 
 7860.000000     0.000000 
 7920.000000     0.001389 
 7980.000000     0.000000 
 8040.000000     0.000000 
 8100.000000     0.000000 
 8160.000000     0.000000 
 8220.000000     0.000000 
 8280.000000     0.000000 
 8340.000000     0.000000 
 8400.000000     0.000000 
 8460.000000     0.000000 
 8520.000000     0.000000 
 8580.000000     0.000000 
 8640.000000     0.000000 
 8700.000000     0.000000 
 8760.000000     0.000000 
 8820.000000     0.000000 
 8880.000000     0.000000 
 8940.000000     0.000000 
 9000.000000     0.000000 
 9060.000000     0.000000 
 9120.000000     0.000000 
 9180.000000     0.000000 
 9240.000000     0.000000 
 9300.000000     0.000000 
 9360.000000     0.000000 
 9420.000000     0.000000 
 9480.000000     0.000000 
 9540.000000     0.000000 
 9600.000000     0.000000 
 9660.000000     0.000000 
 9720.000000     0.000000 
 9780.000000     0.000000 
 9840.000000     0.000000 
 9900.000000     0.000000 
 9960.000000     0.000000 
10020.000000     0.000000 
10080.000000     0.000000 
10140.000000     0.000000 
10200.000000     0.000000 
10260.000000     0.000000 
10320.000000     0.000000 
10380.000000     0.000000 
10440.000000     0.000000 
10500.000000     0.000000 
10560.000000     0.000000 
10620.000000     0.000000 
10680.000000     0.000000 
10740.000000     0.000000 
10800.000000     0.000000 
10860.000000     0.000000 
10920.000000     0.000000 
10980.000000     0.000000 
11040.000000     0.000000 
11100.000000     0.000000 
11160.000000     0.000000 
11220.000000     0.000000 
11280.000000     0.000000 
11340.000000     0.000000 
11400.000000     0.000000 
11460.000000     0.000000 
11520.000000     0.000000 
11580.000000     0.000000 
11640.000000     0.000000 
11700.000000     0.000000 
11760.000000     0.000000 
11820.000000     0.000000 
11880.000000     0.000000 
11940.000000     0.000000 
12000.000000     0.000000 
12060.000000     0.000000 
12120.000000     0.000000 
12180.000000     0.000000 
12240.000000     0.000000 
12300.000000     0.000000 
12360.000000     0.000000 
12420.000000     0.000000 
12480.000000     0.000000 
12540.000000     0.000000 
12600.000000     0.000000 
12660.000000     0.000000 
12720.000000     0.000000 
12780.000000     0.000000 
12840.000000     0.000000 
12900.000000     0.000000 
12960.000000     0.000000 
13020.000000     0.000000 
13080.000000     0.000000 
13140.000000     0.000000 
13200.000000     0.000000 
13260.000000     0.000000 
13320.000000     0.000000 
13380.000000     0.000000 
13440.000000     0.000000 
13500.000000     0.000000 
13560.000000     0.000000 
13620.000000     0.000000 
13680.000000     0.000000 
13740.000000     0.000000 
13800.000000     0.000000 
13860.000000     0.000000 
13920.000000     0.000000 
13980.000000     0.000000 
14040.000000     0.000000 
14100.000000     0.000000 
14160.000000     0.000000 
14220.000000     0.000000 
14280.000000     0.000000 
14340.000000     0.000000 
14400.000000     0.000000 
14460.000000     0.000000 
14520.000000     0.000000 
14580.000000     0.000000 
14640.000000     0.000000 
14700.000000     0.000000 
14760.000000     0.000000 
14820.000000     0.000000 
14880.000000     0.000000 
14940.000000     0.000000 
15000.000000     0.000000 
15060.000000     0.000000 
15120.000000     0.000000 
15180.000000     0.000000 
15240.000000     0.000000 
15300.000000     0.000000 
15360.000000     0.000000 
15420.000000     0.000000 
15480.000000     0.000000 
15540.000000     0.000000 
15600.000000     0.000000 
15660.000000     0.000000 
15720.000000     0.000000 
15780.000000     0.000000 
15840.000000     0.000000 
15900.000000     0.000000 
15960.000000     0.000000 
16020.000000     0.000000 
16080.000000     0.000000 
16140.000000     0.000000 
16200.000000     0.000000 
16260.000000     0.000000 
16320.000000     0.000000 
16380.000000     0.000000 
16440.000000     0.000000 
16500.000000     0.000000 
16560.000000     0.000000 
16620.000000     0.000000 
16680.000000     0.000000 
16740.000000     0.000000 
16800.000000     0.000000 
16860.000000     0.000000 
16920.000000     0.000000 
16980.000000     0.000000 
17040.000000     0.000000 
17100.000000     0.000000 
17160.000000     0.000000 
17220.000000     0.000000 
17280.000000     0.000000 
17340.000000     0.000000 
17400.000000     0.000000 
17460.000000     0.000000 
17520.000000     0.000000 
17580.000000     0.000000 
17640.000000     0.000000 
17700.000000     0.000000 
17760.000000     0.000000 
17820.000000     0.000000 
17880.000000     0.000000 
17940.000000     0.000000 
18000.000000     0.000000 
18060.000000     0.000000 
18120.000000     0.000000 
18180.000000     0.000000 
18240.000000     0.000000 
18300.000000     0.000000 
18360.000000     0.000000 
18420.000000     0.000000 
18480.000000     0.000000 
18540.000000     0.000000 
18600.000000     0.000000 
18660.000000     0.000000 

[Forcing]
name       = LAN-ZEE-KRE-11
function   = timeseries
timeInterpolation = linear
quantity   = time
unit       = minutes since 2010-11-09 00:00:00
quantity   = lateral_discharge
unit       = m3/s
    0.000000     0.000000 
   60.000000     0.000000 
  120.000000     0.000000 
  180.000000     0.000000 
  240.000000     0.000000 
  300.000000     0.000000 
  360.000000     0.000000 
  420.000000     0.000000 
  480.000000     0.000000 
  540.000000     0.000000 
  600.000000     0.000000 
  660.000000     0.000000 
  720.000000     0.000000 
  780.000000     0.000000 
  840.000000     0.000000 
  900.000000     0.000000 
  960.000000     0.000000 
 1020.000000     0.000000 
 1080.000000     0.000000 
 1140.000000     0.000000 
 1200.000000     0.000000 
 1260.000000     0.000000 
 1320.000000     0.000000 
 1380.000000     0.000000 
 1440.000000     0.000000 
 1500.000000     0.000000 
 1560.000000     0.000000 
 1620.000000     0.000000 
 1680.000000     0.000000 
 1740.000000     0.000000 
 1800.000000     0.000000 
 1860.000000     0.000000 
 1920.000000     0.000000 
 1980.000000     0.000000 
 2040.000000     0.000000 
 2100.000000     0.000000 
 2160.000000     0.000000 
 2220.000000     0.000000 
 2280.000000     0.000000 
 2340.000000     0.000000 
 2400.000000     0.000000 
 2460.000000     0.000000 
 2520.000000     0.000000 
 2580.000000     0.000000 
 2640.000000     0.000000 
 2700.000000     0.000000 
 2760.000000     0.000000 
 2820.000000     0.000000 
 2880.000000     0.000000 
 2940.000000     0.000000 
 3000.000000     0.000000 
 3060.000000     0.000000 
 3120.000000     0.000000 
 3180.000000     0.000000 
 3240.000000     0.000000 
 3300.000000     0.000000 
 3360.000000     0.000000 
 3420.000000     0.000000 
 3480.000000     0.000000 
 3540.000000     0.000000 
 3600.000000     0.000000 
 3660.000000     0.000000 
 3720.000000     0.000000 
 3780.000000     0.000000 
 3840.000000     0.000000 
 3900.000000     0.000000 
 3960.000000     0.000000 
 4020.000000     0.000000 
 4080.000000     0.000000 
 4140.000000     0.000000 
 4200.000000     0.000000 
 4260.000000     0.000000 
 4320.000000     0.000000 
 4380.000000     0.000000 
 4440.000000     0.000000 
 4500.000000     0.000000 
 4560.000000     0.000000 
 4620.000000     0.000000 
 4680.000000     0.000000 
 4740.000000     0.000000 
 4800.000000     0.000000 
 4860.000000     0.000000 
 4920.000000     0.000000 
 4980.000000     0.000000 
 5040.000000     0.000000 
 5100.000000     0.000000 
 5160.000000     0.000000 
 5220.000000     0.000000 
 5280.000000     0.000000 
 5340.000000     0.000000 
 5400.000000     0.000000 
 5460.000000     0.000000 
 5520.000000     0.019444 
 5580.000000     0.050278 
 5640.000000     0.053611 
 5700.000000     0.000000 
 5760.000000     0.080000 
 5820.000000     0.062778 
 5880.000000     0.001111 
 5940.000000     0.000000 
 6000.000000     0.003333 
 6060.000000     0.000000 
 6120.000000     0.000000 
 6180.000000     0.000000 
 6240.000000     0.000000 
 6300.000000     0.000000 
 6360.000000     0.000000 
 6420.000000     0.000000 
 6480.000000     0.000000 
 6540.000000     0.000000 
 6600.000000     0.000000 
 6660.000000     0.000000 
 6720.000000     0.000000 
 6780.000000     0.000000 
 6840.000000     0.000000 
 6900.000000     0.000000 
 6960.000000     0.000000 
 7020.000000     0.000000 
 7080.000000     0.000000 
 7140.000000     0.000000 
 7200.000000     0.000000 
 7260.000000     0.000000 
 7320.000000     0.000000 
 7380.000000     0.000000 
 7440.000000     0.000000 
 7500.000000     0.000000 
 7560.000000     0.000000 
 7620.000000     0.000000 
 7680.000000     0.000000 
 7740.000000     0.000000 
 7800.000000     0.000000 
 7860.000000     0.000000 
 7920.000000     0.000000 
 7980.000000     0.000000 
 8040.000000     0.000000 
 8100.000000     0.000000 
 8160.000000     0.000000 
 8220.000000     0.000000 
 8280.000000     0.000000 
 8340.000000     0.000000 
 8400.000000     0.000000 
 8460.000000     0.000000 
 8520.000000     0.000000 
 8580.000000     0.000000 
 8640.000000     0.000000 
 8700.000000     0.000000 
 8760.000000     0.000000 
 8820.000000     0.000000 
 8880.000000     0.000000 
 8940.000000     0.000000 
 9000.000000     0.000000 
 9060.000000     0.000000 
 9120.000000     0.000000 
 9180.000000     0.000000 
 9240.000000     0.000000 
 9300.000000     0.000000 
 9360.000000     0.000000 
 9420.000000     0.000000 
 9480.000000     0.000000 
 9540.000000     0.000000 
 9600.000000     0.000000 
 9660.000000     0.000000 
 9720.000000     0.000000 
 9780.000000     0.000000 
 9840.000000     0.000000 
 9900.000000     0.000000 
 9960.000000     0.000000 
10020.000000     0.000000 
10080.000000     0.000000 
10140.000000     0.000000 
10200.000000     0.000000 
10260.000000     0.000000 
10320.000000     0.000000 
10380.000000     0.000000 
10440.000000     0.000000 
10500.000000     0.000000 
10560.000000     0.000000 
10620.000000     0.000000 
10680.000000     0.000000 
10740.000000     0.000000 
10800.000000     0.000000 
10860.000000     0.000000 
10920.000000     0.000000 
10980.000000     0.000000 
11040.000000     0.000000 
11100.000000     0.000000 
11160.000000     0.000000 
11220.000000     0.000000 
11280.000000     0.000000 
11340.000000     0.000000 
11400.000000     0.000000 
11460.000000     0.000000 
11520.000000     0.000000 
11580.000000     0.000000 
11640.000000     0.000000 
11700.000000     0.000000 
11760.000000     0.000000 
11820.000000     0.000000 
11880.000000     0.000000 
11940.000000     0.000000 
12000.000000     0.000000 
12060.000000     0.000000 
12120.000000     0.000000 
12180.000000     0.000000 
12240.000000     0.000000 
12300.000000     0.000000 
12360.000000     0.000000 
12420.000000     0.000000 
12480.000000     0.000000 
12540.000000     0.000000 
12600.000000     0.000000 
12660.000000     0.000000 
12720.000000     0.000000 
12780.000000     0.000000 
12840.000000     0.000000 
12900.000000     0.000000 
12960.000000     0.000000 
13020.000000     0.000000 
13080.000000     0.000000 
13140.000000     0.000000 
13200.000000     0.000000 
13260.000000     0.000000 
13320.000000     0.000000 
13380.000000     0.000000 
13440.000000     0.000000 
13500.000000     0.000000 
13560.000000     0.000000 
13620.000000     0.000000 
13680.000000     0.000000 
13740.000000     0.000000 
13800.000000     0.000000 
13860.000000     0.000000 
13920.000000     0.000000 
13980.000000     0.000000 
14040.000000     0.000000 
14100.000000     0.000000 
14160.000000     0.000000 
14220.000000     0.000000 
14280.000000     0.000000 
14340.000000     0.000000 
14400.000000     0.000000 
14460.000000     0.000000 
14520.000000     0.000000 
14580.000000     0.000000 
14640.000000     0.000000 
14700.000000     0.000000 
14760.000000     0.000000 
14820.000000     0.000000 
14880.000000     0.000000 
14940.000000     0.000000 
15000.000000     0.000000 
15060.000000     0.000000 
15120.000000     0.000000 
15180.000000     0.000000 
15240.000000     0.000000 
15300.000000     0.000000 
15360.000000     0.000000 
15420.000000     0.000000 
15480.000000     0.000000 
15540.000000     0.000000 
15600.000000     0.000000 
15660.000000     0.000000 
15720.000000     0.000000 
15780.000000     0.000000 
15840.000000     0.000000 
15900.000000     0.000000 
15960.000000     0.000000 
16020.000000     0.000000 
16080.000000     0.000000 
16140.000000     0.000000 
16200.000000     0.000000 
16260.000000     0.000000 
16320.000000     0.000000 
16380.000000     0.000000 
16440.000000     0.000000 
16500.000000     0.000000 
16560.000000     0.000000 
16620.000000     0.000000 
16680.000000     0.000000 
16740.000000     0.000000 
16800.000000     0.000000 
16860.000000     0.000000 
16920.000000     0.000000 
16980.000000     0.000000 
17040.000000     0.000000 
17100.000000     0.000000 
17160.000000     0.000000 
17220.000000     0.000000 
17280.000000     0.000000 
17340.000000     0.000000 
17400.000000     0.000000 
17460.000000     0.000000 
17520.000000     0.000000 
17580.000000     0.000000 
17640.000000     0.000000 
17700.000000     0.000000 
17760.000000     0.000000 
17820.000000     0.000000 
17880.000000     0.000000 
17940.000000     0.000000 
18000.000000     0.000000 
18060.000000     0.000000 
18120.000000     0.000000 
18180.000000     0.000000 
18240.000000     0.000000 
18300.000000     0.000000 
18360.000000     0.000000 
18420.000000     0.000000 
18480.000000     0.000000 
18540.000000     0.000000 
18600.000000     0.000000 
18660.000000     0.000000 
