# Generated with D-HyDAMO in delftd3fmpy v.2.0.3 on 2023-04-19T08:42:43.627302Z.
# Tested and compatible with D-Flow FM Deltares, D-Flow FM Version 5.00.024.74498M, DIMRset Deltares, DIMR_EXE Version 2.00.00.140737 (Win64) (Win64) and D-HYDRO suite 1D2D D-HYDRO Suite 2022.03 1D2D,.
# 
[General]
fileVersion = 1.01
fileType = crossLoc

[CrossSection]
	id = 1050110_85.0
	branchid = 1050110
	chainage = 85.016
	shift = 0.0
	definitionId = 105002P0010

[CrossSection]
	id = 1050120_25.0
	branchid = 1050120
	chainage = 24.978
	shift = 0.0
	definitionId = 105002P0020

[CrossSection]
	id = 1050120_120.8
	branchid = 1050120
	chainage = 120.765
	shift = 0.0
	definitionId = 105002P0030

[CrossSection]
	id = 1050120_269.4
	branchid = 1050120
	chainage = 269.38
	shift = 0.0
	definitionId = 105002P0040

[CrossSection]
	id = 1050120_444.3
	branchid = 1050120
	chainage = 444.335
	shift = 0.0
	definitionId = 105002P0050

[CrossSection]
	id = 1050130_58.5
	branchid = 1050130
	chainage = 58.543
	shift = 0.0
	definitionId = 105002P0060

[CrossSection]
	id = 1050130_246.2
	branchid = 1050130
	chainage = 246.21
	shift = 0.0
	definitionId = 105002P0070

[CrossSection]
	id = 1050150_0.7
	branchid = 1050150
	chainage = 0.708
	shift = 0.0
	definitionId = 105002P0075

[CrossSection]
	id = 1050150_73.2
	branchid = 1050150
	chainage = 73.177
	shift = 0.0
	definitionId = 105002P0080

[CrossSection]
	id = 1050150_243.4
	branchid = 1050150
	chainage = 243.45
	shift = 0.0
	definitionId = 105002P0090

[CrossSection]
	id = 1050160_180.8
	branchid = 1050160
	chainage = 180.777
	shift = 0.0
	definitionId = 105002P0100

[CrossSection]
	id = 1050160_378.7
	branchid = 1050160
	chainage = 378.693
	shift = 0.0
	definitionId = 105002P0110

[CrossSection]
	id = 1050160_451.0
	branchid = 1050160
	chainage = 450.964
	shift = 0.0
	definitionId = 105002P0120

[CrossSection]
	id = 1050200_8.9
	branchid = 1050200
	chainage = 8.878
	shift = 0.0
	definitionId = 105003P0010

[CrossSection]
	id = 1050200_108.2
	branchid = 1050200
	chainage = 108.15
	shift = 0.0
	definitionId = 105003P0020

[CrossSection]
	id = 1050200_208.7
	branchid = 1050200
	chainage = 208.749
	shift = 0.0
	definitionId = 105003P0030

[CrossSection]
	id = 1050200_308.1
	branchid = 1050200
	chainage = 308.121
	shift = 0.0
	definitionId = 105003P0040

[CrossSection]
	id = 1050200_371.9
	branchid = 1050200
	chainage = 371.919
	shift = 0.0
	definitionId = 105003P0050

[CrossSection]
	id = 1050210_92.4
	branchid = 1050210
	chainage = 92.402
	shift = 0.0
	definitionId = 105003P0060

[CrossSection]
	id = 1050210_177.0
	branchid = 1050210
	chainage = 177.046
	shift = 0.0
	definitionId = 105003P0070

[CrossSection]
	id = 1050220_9.4
	branchid = 1050220
	chainage = 9.406
	shift = 0.0
	definitionId = 105003P0080

[CrossSection]
	id = 1050220_107.9
	branchid = 1050220
	chainage = 107.904
	shift = 0.0
	definitionId = 105003P0090

[CrossSection]
	id = 1050220_206.8
	branchid = 1050220
	chainage = 206.777
	shift = 0.0
	definitionId = 105003P0100

[CrossSection]
	id = 1050220_313.7
	branchid = 1050220
	chainage = 313.683
	shift = 0.0
	definitionId = 105003P0110

[CrossSection]
	id = 1050220_404.8
	branchid = 1050220
	chainage = 404.753
	shift = 0.0
	definitionId = 105003P0120

[CrossSection]
	id = 1050220_506.7
	branchid = 1050220
	chainage = 506.685
	shift = 0.0
	definitionId = 105003P0130

[CrossSection]
	id = 1050220_606.5
	branchid = 1050220
	chainage = 606.503
	shift = 0.0
	definitionId = 105003P0140

[CrossSection]
	id = 1050615_19.6
	branchid = 1050615
	chainage = 19.568
	shift = 0.0
	definitionId = 105003P0145

[CrossSection]
	id = 1050620_34.5
	branchid = 1050620
	chainage = 34.537
	shift = 0.0
	definitionId = 105003P0150

[CrossSection]
	id = 1050630_9.8
	branchid = 1050630
	chainage = 9.778
	shift = 0.0
	definitionId = 105003P0160

[CrossSection]
	id = 1050630_111.2
	branchid = 1050630
	chainage = 111.16
	shift = 0.0
	definitionId = 105003P0170

[CrossSection]
	id = 1050630_196.2
	branchid = 1050630
	chainage = 196.196
	shift = 0.0
	definitionId = 105003P0180

[CrossSection]
	id = 1050630_297.4
	branchid = 1050630
	chainage = 297.376
	shift = 0.0
	definitionId = 105003P0190

[CrossSection]
	id = 1050630_388.2
	branchid = 1050630
	chainage = 388.166
	shift = 0.0
	definitionId = 105003P0200

[CrossSection]
	id = 1051380_74.1
	branchid = 1051380
	chainage = 74.113
	shift = 0.0
	definitionId = 105003P0210

[CrossSection]
	id = 1051380_169.7
	branchid = 1051380
	chainage = 169.678
	shift = 0.0
	definitionId = 105003P0220

[CrossSection]
	id = 1051390_71.8
	branchid = 1051390
	chainage = 71.822
	shift = 0.0
	definitionId = 105003P0230

[CrossSection]
	id = 1051390_164.3
	branchid = 1051390
	chainage = 164.345
	shift = 0.0
	definitionId = 105003P0240

[CrossSection]
	id = 1051390_262.1
	branchid = 1051390
	chainage = 262.053
	shift = 0.0
	definitionId = 105003P0250

[CrossSection]
	id = 1051390_363.0
	branchid = 1051390
	chainage = 362.96
	shift = 0.0
	definitionId = 105003P0260

[CrossSection]
	id = 1051390_457.5
	branchid = 1051390
	chainage = 457.482
	shift = 0.0
	definitionId = 105003P0270

[CrossSection]
	id = 1051660_78.9
	branchid = 1051660
	chainage = 78.922
	shift = 0.0
	definitionId = 105003P0280

[CrossSection]
	id = 1051670_77.2
	branchid = 1051670
	chainage = 77.178
	shift = 0.0
	definitionId = 105003P0290

[CrossSection]
	id = 1051680_48.0
	branchid = 1051680
	chainage = 47.992
	shift = 0.0
	definitionId = 105003P0300

[CrossSection]
	id = 1051690_64.4
	branchid = 1051690
	chainage = 64.375
	shift = 0.0
	definitionId = 105003P0310

[CrossSection]
	id = 1051700_20.6
	branchid = 1051700
	chainage = 20.588
	shift = 0.0
	definitionId = 105003P0320

[CrossSection]
	id = 1051710_58.6
	branchid = 1051710
	chainage = 58.615
	shift = 0.0
	definitionId = 105003P0330

[CrossSection]
	id = 1051710_155.4
	branchid = 1051710
	chainage = 155.438
	shift = 0.0
	definitionId = 105003P0340

[CrossSection]
	id = 1052970_46.2
	branchid = 1052970
	chainage = 46.154
	shift = 0.0
	definitionId = 105003P0350

[CrossSection]
	id = 1052970_140.7
	branchid = 1052970
	chainage = 140.692
	shift = 0.0
	definitionId = 105003P0360

[CrossSection]
	id = 1052975_57.2
	branchid = 1052975
	chainage = 57.246
	shift = 0.0
	definitionId = 105003P0370

[CrossSection]
	id = 1052975_163.5
	branchid = 1052975
	chainage = 163.535
	shift = 0.0
	definitionId = 105003P0380

[CrossSection]
	id = 1052980_29.1
	branchid = 1052980
	chainage = 29.121
	shift = 0.0
	definitionId = 105003P0390

[CrossSection]
	id = 1052980_126.0
	branchid = 1052980
	chainage = 125.99
	shift = 0.0
	definitionId = 105003P0400

[CrossSection]
	id = 1052980_223.1
	branchid = 1052980
	chainage = 223.063
	shift = 0.0
	definitionId = 105003P0410

[CrossSection]
	id = 1052985_89.4
	branchid = 1052985
	chainage = 89.416
	shift = 0.0
	definitionId = 105003P0420

[CrossSection]
	id = 1052985_125.8
	branchid = 1052985
	chainage = 125.848
	shift = 0.0
	definitionId = 105003P0425

[CrossSection]
	id = 1053230_4.8
	branchid = 1053230
	chainage = 4.818
	shift = 0.0
	definitionId = 105003P0430

[CrossSection]
	id = 1053230_117.4
	branchid = 1053230
	chainage = 117.366
	shift = 0.0
	definitionId = 105003P0440

[CrossSection]
	id = 1053235_115.1
	branchid = 1053235
	chainage = 115.112
	shift = 0.0
	definitionId = 105003P0450

[CrossSection]
	id = 1053236_4.1
	branchid = 1053236
	chainage = 4.12
	shift = 0.0
	definitionId = 105003P0460

[CrossSection]
	id = 1053530_35.0
	branchid = 1053530
	chainage = 35.035
	shift = 0.0
	definitionId = 105003P0470

[CrossSection]
	id = 1053530_134.5
	branchid = 1053530
	chainage = 134.483
	shift = 0.0
	definitionId = 105003P0480

[CrossSection]
	id = 1053540_83.9
	branchid = 1053540
	chainage = 83.87
	shift = 0.0
	definitionId = 105003P0490

[CrossSection]
	id = 1053540_175.3
	branchid = 1053540
	chainage = 175.262
	shift = 0.0
	definitionId = 105003P0500

[CrossSection]
	id = 1053540_286.0
	branchid = 1053540
	chainage = 286.035
	shift = 0.0
	definitionId = 105003P0510

[CrossSection]
	id = 1053540_390.2
	branchid = 1053540
	chainage = 390.164
	shift = 0.0
	definitionId = 105003P0520

[CrossSection]
	id = 1053540_483.2
	branchid = 1053540
	chainage = 483.167
	shift = 0.0
	definitionId = 105003P0530

[CrossSection]
	id = 1053540_594.0
	branchid = 1053540
	chainage = 594.036
	shift = 0.0
	definitionId = 105003P0540

[CrossSection]
	id = 1054260_13.8
	branchid = 1054260
	chainage = 13.804
	shift = 0.0
	definitionId = 105003P0550

[CrossSection]
	id = 1054260_114.6
	branchid = 1054260
	chainage = 114.623
	shift = 0.0
	definitionId = 105003P0560

[CrossSection]
	id = 1054260_213.7
	branchid = 1054260
	chainage = 213.735
	shift = 0.0
	definitionId = 105003P0570

[CrossSection]
	id = 1054260_307.5
	branchid = 1054260
	chainage = 307.451
	shift = 0.0
	definitionId = 105003P0580

[CrossSection]
	id = 1054260_412.9
	branchid = 1054260
	chainage = 412.888
	shift = 0.0
	definitionId = 105003P0590

[CrossSection]
	id = 1050510_87.0
	branchid = 1050510
	chainage = 87.028
	shift = 0.0
	definitionId = 105004P0010

[CrossSection]
	id = 1050510_286.6
	branchid = 1050510
	chainage = 286.589
	shift = 0.0
	definitionId = 105004P0020

[CrossSection]
	id = 1050510_410.7
	branchid = 1050510
	chainage = 410.712
	shift = 0.0
	definitionId = 105004P0030

[CrossSection]
	id = 1050510_591.3
	branchid = 1050510
	chainage = 591.261
	shift = 0.0
	definitionId = 105004P0040

[CrossSection]
	id = 1050530_14.0
	branchid = 1050530
	chainage = 13.995
	shift = 0.0
	definitionId = 105004P0050

[CrossSection]
	id = 1050535_179.8
	branchid = 1050535
	chainage = 179.803
	shift = 0.0
	definitionId = 105004P0060

[CrossSection]
	id = 1050535_339.3
	branchid = 1050535
	chainage = 339.319
	shift = 0.0
	definitionId = 105004P0070

[CrossSection]
	id = 1050540_124.8
	branchid = 1050540
	chainage = 124.843
	shift = 0.0
	definitionId = 105004P0080

[CrossSection]
	id = 1050545_109.3
	branchid = 1050545
	chainage = 109.266
	shift = 0.0
	definitionId = 105004P0090

[CrossSection]
	id = 1050610_58.9
	branchid = 1050610
	chainage = 58.914
	shift = 0.0
	definitionId = 105005P0010

[CrossSection]
	id = 1050610_250.2
	branchid = 1050610
	chainage = 250.243
	shift = 0.0
	definitionId = 105005P0020

[CrossSection]
	id = 1050610_428.8
	branchid = 1050610
	chainage = 428.76
	shift = 0.0
	definitionId = 105005P0030

[CrossSection]
	id = 1051010_20.8
	branchid = 1051010
	chainage = 20.799
	shift = 0.0
	definitionId = 105006P0005

[CrossSection]
	id = 1051010_92.4
	branchid = 1051010
	chainage = 92.418
	shift = 0.0
	definitionId = 105006P0010

[CrossSection]
	id = 1051010_274.5
	branchid = 1051010
	chainage = 274.529
	shift = 0.0
	definitionId = 105006P0020

[CrossSection]
	id = 1051020_50.6
	branchid = 1051020
	chainage = 50.61
	shift = 0.0
	definitionId = 105006P0030

[CrossSection]
	id = 1051020_246.9
	branchid = 1051020
	chainage = 246.888
	shift = 0.0
	definitionId = 105006P0040

[CrossSection]
	id = 1051030_140.1
	branchid = 1051030
	chainage = 140.133
	shift = 0.0
	definitionId = 105006P0050

[CrossSection]
	id = 1051040_48.5
	branchid = 1051040
	chainage = 48.469
	shift = 0.0
	definitionId = 105006P0060

[CrossSection]
	id = 1051050_122.1
	branchid = 1051050
	chainage = 122.126
	shift = 0.0
	definitionId = 105006P0070

[CrossSection]
	id = 1051050_299.0
	branchid = 1051050
	chainage = 298.97
	shift = 0.0
	definitionId = 105006P0080

[CrossSection]
	id = 1051050_493.5
	branchid = 1051050
	chainage = 493.527
	shift = 0.0
	definitionId = 105006P0090

[CrossSection]
	id = 1051060_117.2
	branchid = 1051060
	chainage = 117.182
	shift = 0.0
	definitionId = 105006P0100

[CrossSection]
	id = 1051070_90.0
	branchid = 1051070
	chainage = 89.99
	shift = 0.0
	definitionId = 105006P0110

[CrossSection]
	id = 1051070_284.1
	branchid = 1051070
	chainage = 284.065
	shift = 0.0
	definitionId = 105006P0120

[CrossSection]
	id = 1051140_88.1
	branchid = 1051140
	chainage = 88.101
	shift = 0.0
	definitionId = 105006P0130

[CrossSection]
	id = 1051140_251.1
	branchid = 1051140
	chainage = 251.05
	shift = 0.0
	definitionId = 105006P0140

[CrossSection]
	id = 1057860_7.2
	branchid = 1057860
	chainage = 7.236
	shift = 0.0
	definitionId = 105006P0145

[CrossSection]
	id = 1057860_77.7
	branchid = 1057860
	chainage = 77.663
	shift = 0.0
	definitionId = 105006P0150

[CrossSection]
	id = 1051150_70.1
	branchid = 1051150
	chainage = 70.126
	shift = 0.0
	definitionId = 105006P0160

[CrossSection]
	id = 1051150_245.0
	branchid = 1051150
	chainage = 244.982
	shift = 0.0
	definitionId = 105006P0170

[CrossSection]
	id = 1051230_7.5
	branchid = 1051230
	chainage = 7.522
	shift = 0.0
	definitionId = 105006P0174

[CrossSection]
	id = 1051230_48.8
	branchid = 1051230
	chainage = 48.821
	shift = 0.0
	definitionId = 105006P0178

[CrossSection]
	id = 1051230_112.0
	branchid = 1051230
	chainage = 112.002
	shift = 0.0
	definitionId = 105006P0180

[CrossSection]
	id = 1051240_128.2
	branchid = 1051240
	chainage = 128.224
	shift = 0.0
	definitionId = 105006P0190

[CrossSection]
	id = 1051240_272.3
	branchid = 1051240
	chainage = 272.326
	shift = 0.0
	definitionId = 105006P0200

[CrossSection]
	id = 1051250_176.7
	branchid = 1051250
	chainage = 176.703
	shift = 0.0
	definitionId = 105006P0210

[CrossSection]
	id = 1051250_277.8
	branchid = 1051250
	chainage = 277.84
	shift = 0.0
	definitionId = 105006P0220

[CrossSection]
	id = 1051340_168.2
	branchid = 1051340
	chainage = 168.182
	shift = 0.0
	definitionId = 105006P0230

[CrossSection]
	id = 1051340_355.3
	branchid = 1051340
	chainage = 355.294
	shift = 0.0
	definitionId = 105006P0240

[CrossSection]
	id = 1051340_551.1
	branchid = 1051340
	chainage = 551.071
	shift = 0.0
	definitionId = 105006P0250

[CrossSection]
	id = 1051360_176.0
	branchid = 1051360
	chainage = 175.985
	shift = 0.0
	definitionId = 105006P0260

[CrossSection]
	id = 1051360_370.0
	branchid = 1051360
	chainage = 369.994
	shift = 0.0
	definitionId = 105006P0270

[CrossSection]
	id = 1051370_42.5
	branchid = 1051370
	chainage = 42.53
	shift = 0.0
	definitionId = 105006P0280

[CrossSection]
	id = 1051370_241.5
	branchid = 1051370
	chainage = 241.531
	shift = 0.0
	definitionId = 105006P0290

[CrossSection]
	id = 1051110_43.6
	branchid = 1051110
	chainage = 43.635
	shift = 0.0
	definitionId = 105007P0010

[CrossSection]
	id = 1051120_114.3
	branchid = 1051120
	chainage = 114.345
	shift = 0.0
	definitionId = 105007P0020

[CrossSection]
	id = 1051130_57.7
	branchid = 1051130
	chainage = 57.71
	shift = 0.0
	definitionId = 105007P0030

[CrossSection]
	id = 1051130_248.6
	branchid = 1051130
	chainage = 248.589
	shift = 0.0
	definitionId = 105007P0040

[CrossSection]
	id = 1051130_393.0
	branchid = 1051130
	chainage = 393.022
	shift = 0.0
	definitionId = 105007P0050

[CrossSection]
	id = 1051310_18.5
	branchid = 1051310
	chainage = 18.501
	shift = 0.0
	definitionId = 105008P0005

[CrossSection]
	id = 1051310_88.7
	branchid = 1051310
	chainage = 88.728
	shift = 0.0
	definitionId = 105008P0010

[CrossSection]
	id = 1051310_267.7
	branchid = 1051310
	chainage = 267.689
	shift = 0.0
	definitionId = 105008P0020

[CrossSection]
	id = 1051328_152.7
	branchid = 1051328
	chainage = 152.686
	shift = 0.0
	definitionId = 105008P0030

[CrossSection]
	id = 1051328_334.3
	branchid = 1051328
	chainage = 334.327
	shift = 0.0
	definitionId = 105008P0040

[CrossSection]
	id = 1051328_524.1
	branchid = 1051328
	chainage = 524.129
	shift = 0.0
	definitionId = 105008P0050

[CrossSection]
	id = 1051330_162.5
	branchid = 1051330
	chainage = 162.53
	shift = 0.0
	definitionId = 105008P0060

[CrossSection]
	id = 1051330_301.5
	branchid = 1051330
	chainage = 301.54
	shift = 0.0
	definitionId = 105008P0070

[CrossSection]
	id = 1051510_24.9
	branchid = 1051510
	chainage = 24.914
	shift = 0.0
	definitionId = 105009P0010

[CrossSection]
	id = 1051510_212.0
	branchid = 1051510
	chainage = 211.952
	shift = 0.0
	definitionId = 105009P0030

[CrossSection]
	id = 1051610_41.6
	branchid = 1051610
	chainage = 41.632
	shift = 0.0
	definitionId = 105010P0010

[CrossSection]
	id = 1051615_60.5
	branchid = 1051615
	chainage = 60.48
	shift = 0.0
	definitionId = 105010P0020

[CrossSection]
	id = 1051615_260.0
	branchid = 1051615
	chainage = 259.966
	shift = 0.0
	definitionId = 105010P0030

[CrossSection]
	id = 1051630_62.6
	branchid = 1051630
	chainage = 62.571
	shift = 0.0
	definitionId = 105010P0040

[CrossSection]
	id = 1051630_256.0
	branchid = 1051630
	chainage = 255.984
	shift = 0.0
	definitionId = 105010P0050

[CrossSection]
	id = 1051630_421.8
	branchid = 1051630
	chainage = 421.789
	shift = 0.0
	definitionId = 105010P0060

[CrossSection]
	id = 1051640_172.7
	branchid = 1051640
	chainage = 172.698
	shift = 0.0
	definitionId = 105010P0070

[CrossSection]
	id = 1051650_83.5
	branchid = 1051650
	chainage = 83.487
	shift = 0.0
	definitionId = 105010P0080

[CrossSection]
	id = 1052010_23.2
	branchid = 1052010
	chainage = 23.201
	shift = 0.0
	definitionId = 105011P0010

[CrossSection]
	id = 1052010_211.5
	branchid = 1052010
	chainage = 211.465
	shift = 0.0
	definitionId = 105011P0020

[CrossSection]
	id = 1052020_13.5
	branchid = 1052020
	chainage = 13.527
	shift = 0.0
	definitionId = 105011P0030

[CrossSection]
	id = 1052020_208.1
	branchid = 1052020
	chainage = 208.092
	shift = 0.0
	definitionId = 105011P0040

[CrossSection]
	id = 1052040_98.1
	branchid = 1052040
	chainage = 98.078
	shift = 0.0
	definitionId = 105011P0050

[CrossSection]
	id = 1052050_140.0
	branchid = 1052050
	chainage = 139.962
	shift = 0.0
	definitionId = 105011P0060

[CrossSection]
	id = 1052050_316.3
	branchid = 1052050
	chainage = 316.308
	shift = 0.0
	definitionId = 105011P0070

[CrossSection]
	id = 1052050_511.4
	branchid = 1052050
	chainage = 511.41
	shift = 0.0
	definitionId = 105011P0080

[CrossSection]
	id = 1052180_168.7
	branchid = 1052180
	chainage = 168.736
	shift = 0.0
	definitionId = 105011P0090

[CrossSection]
	id = 1052210_169.8
	branchid = 1052210
	chainage = 169.758
	shift = 0.0
	definitionId = 105011P0100

[CrossSection]
	id = 1052220_72.4
	branchid = 1052220
	chainage = 72.373
	shift = 0.0
	definitionId = 105011P0110

[CrossSection]
	id = 1052220_257.0
	branchid = 1052220
	chainage = 256.967
	shift = 0.0
	definitionId = 105011P0120

[CrossSection]
	id = 1052230_142.1
	branchid = 1052230
	chainage = 142.141
	shift = 0.0
	definitionId = 105011P0130

[CrossSection]
	id = 1052230_335.3
	branchid = 1052230
	chainage = 335.273
	shift = 0.0
	definitionId = 105011P0140

[CrossSection]
	id = 1052460_31.8
	branchid = 1052460
	chainage = 31.787
	shift = 0.0
	definitionId = 105011P0150

[CrossSection]
	id = 1052460_34.4
	branchid = 1052460
	chainage = 34.353
	shift = 0.0
	definitionId = 105011P0160

[CrossSection]
	id = 1052470_9.8
	branchid = 1052470
	chainage = 9.833
	shift = 0.0
	definitionId = 105011P0170

[CrossSection]
	id = 1052470_205.1
	branchid = 1052470
	chainage = 205.06
	shift = 0.0
	definitionId = 105011P0180

[CrossSection]
	id = 1052480_100.1
	branchid = 1052480
	chainage = 100.063
	shift = 0.0
	definitionId = 105011P0190

[CrossSection]
	id = 1052490_159.5
	branchid = 1052490
	chainage = 159.544
	shift = 0.0
	definitionId = 105011P0200

[CrossSection]
	id = 1052500_148.5
	branchid = 1052500
	chainage = 148.531
	shift = 0.0
	definitionId = 105011P0210

[CrossSection]
	id = 1052510_24.2
	branchid = 1052510
	chainage = 24.181
	shift = 0.0
	definitionId = 105011P0220

[CrossSection]
	id = 1052510_147.7
	branchid = 1052510
	chainage = 147.67
	shift = 0.0
	definitionId = 105011P0230

[CrossSection]
	id = 1052510_333.5
	branchid = 1052510
	chainage = 333.454
	shift = 0.0
	definitionId = 105011P0240

[CrossSection]
	id = 1052630_7.9
	branchid = 1052630
	chainage = 7.914
	shift = 0.0
	definitionId = 105011P0250

[CrossSection]
	id = 1052630_94.6
	branchid = 1052630
	chainage = 94.568
	shift = 0.0
	definitionId = 105011P0260

[CrossSection]
	id = 1052630_288.9
	branchid = 1052630
	chainage = 288.85
	shift = 0.0
	definitionId = 105011P0270

[CrossSection]
	id = 1052630_482.5
	branchid = 1052630
	chainage = 482.511
	shift = 0.0
	definitionId = 105011P0280

[CrossSection]
	id = 1052950_84.6
	branchid = 1052950
	chainage = 84.559
	shift = 0.0
	definitionId = 105011P0290

[CrossSection]
	id = 1052950_88.8
	branchid = 1052950
	chainage = 88.771
	shift = 0.0
	definitionId = 105011P0300

[CrossSection]
	id = 1052950_279.1
	branchid = 1052950
	chainage = 279.127
	shift = 0.0
	definitionId = 105011P0310

[CrossSection]
	id = 1052960_15.9
	branchid = 1052960
	chainage = 15.881
	shift = 0.0
	definitionId = 105011P0320

[CrossSection]
	id = 1052960_214.2
	branchid = 1052960
	chainage = 214.235
	shift = 0.0
	definitionId = 105011P0330

[CrossSection]
	id = 1052960_369.3
	branchid = 1052960
	chainage = 369.258
	shift = 0.0
	definitionId = 105011P0340

[CrossSection]
	id = 1052960_467.4
	branchid = 1052960
	chainage = 467.442
	shift = 0.0
	definitionId = 105011P0350

[CrossSection]
	id = 1052130_29.1
	branchid = 1052130
	chainage = 29.082
	shift = 0.0
	definitionId = 105012P0030

[CrossSection]
	id = 1052150_29.9
	branchid = 1052150
	chainage = 29.929
	shift = 0.0
	definitionId = 105012P0040

[CrossSection]
	id = 1052160_26.7
	branchid = 1052160
	chainage = 26.667
	shift = 0.0
	definitionId = 105012P0050

[CrossSection]
	id = 1052160_119.9
	branchid = 1052160
	chainage = 119.941
	shift = 0.0
	definitionId = 105012P0060

[CrossSection]
	id = 1052170_7.7
	branchid = 1052170
	chainage = 7.668
	shift = 0.0
	definitionId = 105012P0070

[CrossSection]
	id = 1052170_155.8
	branchid = 1052170
	chainage = 155.767
	shift = 0.0
	definitionId = 105012P0080

[CrossSection]
	id = 1052170_350.6
	branchid = 1052170
	chainage = 350.631
	shift = 0.0
	definitionId = 105012P0090

[CrossSection]
	id = 1052420_31.8
	branchid = 1052420
	chainage = 31.785
	shift = 0.0
	definitionId = 105013P0010

[CrossSection]
	id = 1052430_132.0
	branchid = 1052430
	chainage = 132.014
	shift = 0.0
	definitionId = 105013P0020

[CrossSection]
	id = 1052440_16.5
	branchid = 1052440
	chainage = 16.474
	shift = 0.0
	definitionId = 105013P0030

[CrossSection]
	id = 1052440_190.4
	branchid = 1052440
	chainage = 190.367
	shift = 0.0
	definitionId = 105013P0040

[CrossSection]
	id = 1052440_377.1
	branchid = 1052440
	chainage = 377.09
	shift = 0.0
	definitionId = 105013P0050

[CrossSection]
	id = 1052440_458.5
	branchid = 1052440
	chainage = 458.474
	shift = 0.0
	definitionId = 105013P0060

[CrossSection]
	id = 1052610_112.7
	branchid = 1052610
	chainage = 112.696
	shift = 0.0
	definitionId = 105014P0010

[CrossSection]
	id = 1052610_304.2
	branchid = 1052610
	chainage = 304.187
	shift = 0.0
	definitionId = 105014P0020

[CrossSection]
	id = 1052730_16.6
	branchid = 1052730
	chainage = 16.564
	shift = 0.0
	definitionId = 105015P0010

[CrossSection]
	id = 1052740_19.4
	branchid = 1052740
	chainage = 19.383
	shift = 0.0
	definitionId = 105015P0020

[CrossSection]
	id = 1052740_160.8
	branchid = 1052740
	chainage = 160.765
	shift = 0.0
	definitionId = 105015P0025

[CrossSection]
	id = 1052750_39.2
	branchid = 1052750
	chainage = 39.164
	shift = 0.0
	definitionId = 105015P0030

[CrossSection]
	id = 1052760_52.2
	branchid = 1052760
	chainage = 52.191
	shift = 0.0
	definitionId = 105015P0040

[CrossSection]
	id = 1052810_51.8
	branchid = 1052810
	chainage = 51.767
	shift = 0.0
	definitionId = 105015P0050

[CrossSection]
	id = 1052810_231.7
	branchid = 1052810
	chainage = 231.733
	shift = 0.0
	definitionId = 105015P0060

[CrossSection]
	id = 1052935_110.4
	branchid = 1052935
	chainage = 110.357
	shift = 0.0
	definitionId = 105015P0070

[CrossSection]
	id = 1052935_262.7
	branchid = 1052935
	chainage = 262.719
	shift = 0.0
	definitionId = 105015P0080

[CrossSection]
	id = 1052940_131.4
	branchid = 1052940
	chainage = 131.416
	shift = 0.0
	definitionId = 105015P0090

[CrossSection]
	id = 1052940_319.6
	branchid = 1052940
	chainage = 319.621
	shift = 0.0
	definitionId = 105015P0100

[CrossSection]
	id = 1052940_451.2
	branchid = 1052940
	chainage = 451.192
	shift = 0.0
	definitionId = 105015P0110

[CrossSection]
	id = 1052930_49.5
	branchid = 1052930
	chainage = 49.514
	shift = 0.0
	definitionId = 105016P0010

[CrossSection]
	id = 1053020_16.3
	branchid = 1053020
	chainage = 16.336
	shift = 0.0
	definitionId = 105017P0010

[CrossSection]
	id = 1053020_114.4
	branchid = 1053020
	chainage = 114.356
	shift = 0.0
	definitionId = 105017P0020

[CrossSection]
	id = 1053020_230.3
	branchid = 1053020
	chainage = 230.317
	shift = 0.0
	definitionId = 105017P0030

[CrossSection]
	id = 1053030_92.1
	branchid = 1053030
	chainage = 92.141
	shift = 0.0
	definitionId = 105017P0040

[CrossSection]
	id = 1053150_132.3
	branchid = 1053150
	chainage = 132.349
	shift = 0.0
	definitionId = 105017P0050

[CrossSection]
	id = 1053160_90.9
	branchid = 1053160
	chainage = 90.899
	shift = 0.0
	definitionId = 105017P0060

[CrossSection]
	id = 1053160_291.0
	branchid = 1053160
	chainage = 290.979
	shift = 0.0
	definitionId = 105017P0070

[CrossSection]
	id = 1053170_78.7
	branchid = 1053170
	chainage = 78.743
	shift = 0.0
	definitionId = 105017P0080

[CrossSection]
	id = 1053170_275.3
	branchid = 1053170
	chainage = 275.326
	shift = 0.0
	definitionId = 105017P0090

[CrossSection]
	id = 1053180_146.1
	branchid = 1053180
	chainage = 146.11
	shift = 0.0
	definitionId = 105017P0100

[CrossSection]
	id = 1053220_154.1
	branchid = 1053220
	chainage = 154.109
	shift = 0.0
	definitionId = 105017P0110

[CrossSection]
	id = 1053220_315.6
	branchid = 1053220
	chainage = 315.644
	shift = 0.0
	definitionId = 105017P0120

[CrossSection]
	id = 1053225_129.3
	branchid = 1053225
	chainage = 129.295
	shift = 0.0
	definitionId = 105017P0130

[CrossSection]
	id = 1053225_319.6
	branchid = 1053225
	chainage = 319.565
	shift = 0.0
	definitionId = 105017P0140

[CrossSection]
	id = 1053225_511.9
	branchid = 1053225
	chainage = 511.918
	shift = 0.0
	definitionId = 105017P0150

[CrossSection]
	id = 1053110_26.3
	branchid = 1053110
	chainage = 26.295
	shift = 0.0
	definitionId = 105018P0010

[CrossSection]
	id = 1053120_108.3
	branchid = 1053120
	chainage = 108.277
	shift = 0.0
	definitionId = 105018P0020

[CrossSection]
	id = 1053130_93.2
	branchid = 1053130
	chainage = 93.22
	shift = 0.0
	definitionId = 105018P0030

[CrossSection]
	id = 1053140_29.0
	branchid = 1053140
	chainage = 29.044
	shift = 0.0
	definitionId = 105018P0040

[CrossSection]
	id = 1053210_35.5
	branchid = 1053210
	chainage = 35.483
	shift = 0.0
	definitionId = 105019P0010

[CrossSection]
	id = 1053210_96.4
	branchid = 1053210
	chainage = 96.375
	shift = 0.0
	definitionId = 105019P0020

[CrossSection]
	id = 1053510_95.0
	branchid = 1053510
	chainage = 94.999
	shift = 0.0
	definitionId = 105020P0010

[CrossSection]
	id = 1053510_285.3
	branchid = 1053510
	chainage = 285.259
	shift = 0.0
	definitionId = 105020P0020

[CrossSection]
	id = 1053510_475.4
	branchid = 1053510
	chainage = 475.441
	shift = 0.0
	definitionId = 105020P0030

[CrossSection]
	id = 1053510_552.4
	branchid = 1053510
	chainage = 552.369
	shift = 0.0
	definitionId = 105020P0040

[CrossSection]
	id = 1054010_44.9
	branchid = 1054010
	chainage = 44.861
	shift = 0.0
	definitionId = 105021P0005

[CrossSection]
	id = 1054010_91.9
	branchid = 1054010
	chainage = 91.914
	shift = 0.0
	definitionId = 105021P0010

[CrossSection]
	id = 1054020_132.7
	branchid = 1054020
	chainage = 132.731
	shift = 0.0
	definitionId = 105021P0020

[CrossSection]
	id = 1054025_113.9
	branchid = 1054025
	chainage = 113.9
	shift = 0.0
	definitionId = 105021P0030

[CrossSection]
	id = 1054030_18.0
	branchid = 1054030
	chainage = 17.96
	shift = 0.0
	definitionId = 105021P0040

[CrossSection]
	id = 1054030_215.2
	branchid = 1054030
	chainage = 215.18
	shift = 0.0
	definitionId = 105021P0050

[CrossSection]
	id = 1054030_415.7
	branchid = 1054030
	chainage = 415.671
	shift = 0.0
	definitionId = 105021P0060

[CrossSection]
	id = 1054030_629.1
	branchid = 1054030
	chainage = 629.119
	shift = 0.0
	definitionId = 105021P0070

[CrossSection]
	id = 1054060_89.9
	branchid = 1054060
	chainage = 89.89
	shift = 0.0
	definitionId = 105021P0080

[CrossSection]
	id = 1054060_266.8
	branchid = 1054060
	chainage = 266.836
	shift = 0.0
	definitionId = 105021P0090

[CrossSection]
	id = 1054060_475.4
	branchid = 1054060
	chainage = 475.405
	shift = 0.0
	definitionId = 105021P0100

[CrossSection]
	id = 1054080_123.1
	branchid = 1054080
	chainage = 123.058
	shift = 0.0
	definitionId = 105021P0110

[CrossSection]
	id = 1054100_35.5
	branchid = 1054100
	chainage = 35.487
	shift = 0.0
	definitionId = 105021P0120

[CrossSection]
	id = 1054100_130.8
	branchid = 1054100
	chainage = 130.777
	shift = 0.0
	definitionId = 105021P0130

[CrossSection]
	id = 1054100_285.0
	branchid = 1054100
	chainage = 284.974
	shift = 0.0
	definitionId = 105021P0140

[CrossSection]
	id = 1054110_162.4
	branchid = 1054110
	chainage = 162.423
	shift = 0.0
	definitionId = 105021P0150

[CrossSection]
	id = 1054110_273.7
	branchid = 1054110
	chainage = 273.678
	shift = 0.0
	definitionId = 105021P0160

[CrossSection]
	id = 1054110_413.3
	branchid = 1054110
	chainage = 413.306
	shift = 0.0
	definitionId = 105021P0170

[CrossSection]
	id = 1054120_71.3
	branchid = 1054120
	chainage = 71.295
	shift = 0.0
	definitionId = 105021P0180

[CrossSection]
	id = 1054120_232.1
	branchid = 1054120
	chainage = 232.081
	shift = 0.0
	definitionId = 105021P0190

[CrossSection]
	id = 1054130_87.2
	branchid = 1054130
	chainage = 87.195
	shift = 0.0
	definitionId = 105021P0200

[CrossSection]
	id = 1054140_185.9
	branchid = 1054140
	chainage = 185.871
	shift = 0.0
	definitionId = 105021P0210

[CrossSection]
	id = 1054150_167.2
	branchid = 1054150
	chainage = 167.156
	shift = 0.0
	definitionId = 105021P0220

[CrossSection]
	id = 1054230_189.9
	branchid = 1054230
	chainage = 189.92
	shift = 0.0
	definitionId = 105021P0240

[CrossSection]
	id = 1054240_48.9
	branchid = 1054240
	chainage = 48.882
	shift = 0.0
	definitionId = 105021P0250

[CrossSection]
	id = 1054245_52.2
	branchid = 1054245
	chainage = 52.237
	shift = 0.0
	definitionId = 105021P0260

[CrossSection]
	id = 1054250_99.0
	branchid = 1054250
	chainage = 98.991
	shift = 0.0
	definitionId = 105021P0270

[CrossSection]
	id = 1054250_285.7
	branchid = 1054250
	chainage = 285.661
	shift = 0.0
	definitionId = 105021P0280

[CrossSection]
	id = 1054255_53.4
	branchid = 1054255
	chainage = 53.39
	shift = 0.0
	definitionId = 105021P0290

[CrossSection]
	id = 1054210_8.0
	branchid = 1054210
	chainage = 8.028
	shift = 0.0
	definitionId = 105022P0005

[CrossSection]
	id = 1054210_94.5
	branchid = 1054210
	chainage = 94.526
	shift = 0.0
	definitionId = 105022P0010

[CrossSection]
	id = 1054215_33.1
	branchid = 1054215
	chainage = 33.082
	shift = 0.0
	definitionId = 105022P0020

[CrossSection]
	id = 1054215_102.1
	branchid = 1054215
	chainage = 102.075
	shift = 0.0
	definitionId = 105022P0030

[CrossSection]
	id = 1055010_22.6
	branchid = 1055010
	chainage = 22.6
	shift = 0.0
	definitionId = 105023P0010

[CrossSection]
	id = 1055010_203.5
	branchid = 1055010
	chainage = 203.509
	shift = 0.0
	definitionId = 105023P0020

[CrossSection]
	id = 1055020_36.4
	branchid = 1055020
	chainage = 36.396
	shift = 0.0
	definitionId = 105023P0040

[CrossSection]
	id = 1055030_78.0
	branchid = 1055030
	chainage = 77.961
	shift = 0.0
	definitionId = 105023P0060

[CrossSection]
	id = 1055030_242.5
	branchid = 1055030
	chainage = 242.541
	shift = 0.0
	definitionId = 105023P0080

[CrossSection]
	id = 1055030_319.7
	branchid = 1055030
	chainage = 319.678
	shift = 0.0
	definitionId = 105023P0085

[CrossSection]
	id = 1057870_18.8
	branchid = 1057870
	chainage = 18.848
	shift = 0.0
	definitionId = 105023P0090

[CrossSection]
	id = 1057870_119.5
	branchid = 1057870
	chainage = 119.462
	shift = 0.0
	definitionId = 105023P0100

[CrossSection]
	id = 1055040_72.0
	branchid = 1055040
	chainage = 72.02
	shift = 0.0
	definitionId = 105023P0120

[CrossSection]
	id = 1055040_256.2
	branchid = 1055040
	chainage = 256.167
	shift = 0.0
	definitionId = 105023P0140

[CrossSection]
	id = 1055040_418.1
	branchid = 1055040
	chainage = 418.071
	shift = 0.0
	definitionId = 105023P0160

[CrossSection]
	id = 1055050_43.0
	branchid = 1055050
	chainage = 43.01
	shift = 0.0
	definitionId = 105023P0170

[CrossSection]
	id = 1055050_117.3
	branchid = 1055050
	chainage = 117.253
	shift = 0.0
	definitionId = 105023P0180

[CrossSection]
	id = 1055050_207.0
	branchid = 1055050
	chainage = 206.99
	shift = 0.0
	definitionId = 105023P0190

[CrossSection]
	id = 1057880_39.5
	branchid = 1057880
	chainage = 39.473
	shift = 0.0
	definitionId = 105023P0200

[CrossSection]
	id = 1055060_63.8
	branchid = 1055060
	chainage = 63.814
	shift = 0.0
	definitionId = 105023P0210

[CrossSection]
	id = 1055070_79.3
	branchid = 1055070
	chainage = 79.328
	shift = 0.0
	definitionId = 105023P0220

[CrossSection]
	id = 1055070_141.7
	branchid = 1055070
	chainage = 141.669
	shift = 0.0
	definitionId = 105023P0230

[CrossSection]
	id = 1055070_237.4
	branchid = 1055070
	chainage = 237.407
	shift = 0.0
	definitionId = 105023P0240

[CrossSection]
	id = 1055070_326.5
	branchid = 1055070
	chainage = 326.456
	shift = 0.0
	definitionId = 105023P0250

[CrossSection]
	id = 1055070_422.4
	branchid = 1055070
	chainage = 422.449
	shift = 0.0
	definitionId = 105023P0260

[CrossSection]
	id = 1055080_55.2
	branchid = 1055080
	chainage = 55.2
	shift = 0.0
	definitionId = 105023P0270

[CrossSection]
	id = 1055080_149.5
	branchid = 1055080
	chainage = 149.549
	shift = 0.0
	definitionId = 105023P0280

[CrossSection]
	id = 1055080_243.8
	branchid = 1055080
	chainage = 243.821
	shift = 0.0
	definitionId = 105023P0290

[CrossSection]
	id = 1055080_340.7
	branchid = 1055080
	chainage = 340.653
	shift = 0.0
	definitionId = 105023P0300

[CrossSection]
	id = 1055090_6.8
	branchid = 1055090
	chainage = 6.839
	shift = 0.0
	definitionId = 105023P0310

[CrossSection]
	id = 1055090_103.6
	branchid = 1055090
	chainage = 103.563
	shift = 0.0
	definitionId = 105023P0320

[CrossSection]
	id = 1055090_195.0
	branchid = 1055090
	chainage = 194.965
	shift = 0.0
	definitionId = 105023P0330

[CrossSection]
	id = 1055090_291.0
	branchid = 1055090
	chainage = 291.029
	shift = 0.0
	definitionId = 105023P0340

[CrossSection]
	id = 1055090_389.0
	branchid = 1055090
	chainage = 389.038
	shift = 0.0
	definitionId = 105023P0350

[CrossSection]
	id = 1055090_485.9
	branchid = 1055090
	chainage = 485.876
	shift = 0.0
	definitionId = 105023P0360

[CrossSection]
	id = 1055090_581.4
	branchid = 1055090
	chainage = 581.388
	shift = 0.0
	definitionId = 105023P0370

[CrossSection]
	id = 1055090_667.2
	branchid = 1055090
	chainage = 667.234
	shift = 0.0
	definitionId = 105023P0380

[CrossSection]
	id = 1055090_758.9
	branchid = 1055090
	chainage = 758.9
	shift = 0.0
	definitionId = 105023P0390

[CrossSection]
	id = 1055090_854.6
	branchid = 1055090
	chainage = 854.617
	shift = 0.0
	definitionId = 105023P0400

[CrossSection]
	id = 1055140_23.6
	branchid = 1055140
	chainage = 23.581
	shift = 0.0
	definitionId = 105023P0410

[CrossSection]
	id = 1055140_121.4
	branchid = 1055140
	chainage = 121.382
	shift = 0.0
	definitionId = 105023P0420

[CrossSection]
	id = 1055140_219.8
	branchid = 1055140
	chainage = 219.834
	shift = 0.0
	definitionId = 105023P0430

[CrossSection]
	id = 1055150_84.1
	branchid = 1055150
	chainage = 84.131
	shift = 0.0
	definitionId = 105023P0440

[CrossSection]
	id = 1055150_174.5
	branchid = 1055150
	chainage = 174.505
	shift = 0.0
	definitionId = 105023P0450

[CrossSection]
	id = 1055150_272.7
	branchid = 1055150
	chainage = 272.675
	shift = 0.0
	definitionId = 105023P0460

[CrossSection]
	id = 1055230_20.3
	branchid = 1055230
	chainage = 20.297
	shift = 0.0
	definitionId = 105023P0470

[CrossSection]
	id = 1055230_101.9
	branchid = 1055230
	chainage = 101.927
	shift = 0.0
	definitionId = 105023P0480

[CrossSection]
	id = 1055230_203.3
	branchid = 1055230
	chainage = 203.319
	shift = 0.0
	definitionId = 105023P0490

[CrossSection]
	id = 1055230_303.2
	branchid = 1055230
	chainage = 303.206
	shift = 0.0
	definitionId = 105023P0500

[CrossSection]
	id = 1055330_85.1
	branchid = 1055330
	chainage = 85.078
	shift = 0.0
	definitionId = 105023P0510

[CrossSection]
	id = 1055330_186.7
	branchid = 1055330
	chainage = 186.668
	shift = 0.0
	definitionId = 105023P0520

[CrossSection]
	id = 1055330_281.8
	branchid = 1055330
	chainage = 281.815
	shift = 0.0
	definitionId = 105023P0530

[CrossSection]
	id = 1055330_373.3
	branchid = 1055330
	chainage = 373.304
	shift = 0.0
	definitionId = 105023P0540

[CrossSection]
	id = 1055340_100.6
	branchid = 1055340
	chainage = 100.634
	shift = 0.0
	definitionId = 105023P0550

[CrossSection]
	id = 1055550_36.6
	branchid = 1055550
	chainage = 36.58
	shift = 0.0
	definitionId = 105023P0560

[CrossSection]
	id = 1055550_133.4
	branchid = 1055550
	chainage = 133.413
	shift = 0.0
	definitionId = 105023P0570

[CrossSection]
	id = 1055550_231.7
	branchid = 1055550
	chainage = 231.746
	shift = 0.0
	definitionId = 105023P0580

[CrossSection]
	id = 1055550_329.2
	branchid = 1055550
	chainage = 329.214
	shift = 0.0
	definitionId = 105023P0590

[CrossSection]
	id = 1055550_427.3
	branchid = 1055550
	chainage = 427.315
	shift = 0.0
	definitionId = 105023P0600

[CrossSection]
	id = 1055630_94.1
	branchid = 1055630
	chainage = 94.103
	shift = 0.0
	definitionId = 105023P0610

[CrossSection]
	id = 1055640_25.3
	branchid = 1055640
	chainage = 25.265
	shift = 0.0
	definitionId = 105023P0620

[CrossSection]
	id = 1055640_120.9
	branchid = 1055640
	chainage = 120.871
	shift = 0.0
	definitionId = 105023P0630

[CrossSection]
	id = 1055640_219.0
	branchid = 1055640
	chainage = 219.017
	shift = 0.0
	definitionId = 105023P0640

[CrossSection]
	id = 1055720_31.2
	branchid = 1055720
	chainage = 31.194
	shift = 0.0
	definitionId = 105023P0650

[CrossSection]
	id = 1055730_32.8
	branchid = 1055730
	chainage = 32.761
	shift = 0.0
	definitionId = 105023P0660

[CrossSection]
	id = 1055850_26.7
	branchid = 1055850
	chainage = 26.732
	shift = 0.0
	definitionId = 105023P0670

[CrossSection]
	id = 1055850_124.2
	branchid = 1055850
	chainage = 124.23
	shift = 0.0
	definitionId = 105023P0680

[CrossSection]
	id = 1055850_223.8
	branchid = 1055850
	chainage = 223.791
	shift = 0.0
	definitionId = 105023P0690

[CrossSection]
	id = 1055850_305.4
	branchid = 1055850
	chainage = 305.431
	shift = 0.0
	definitionId = 105023P0700

[CrossSection]
	id = 1055950_55.8
	branchid = 1055950
	chainage = 55.812
	shift = 0.0
	definitionId = 105023P0710

[CrossSection]
	id = 1055950_132.6
	branchid = 1055950
	chainage = 132.581
	shift = 0.0
	definitionId = 105023P0720

[CrossSection]
	id = 1055950_229.6
	branchid = 1055950
	chainage = 229.562
	shift = 0.0
	definitionId = 105023P0730

[CrossSection]
	id = 1055950_324.2
	branchid = 1055950
	chainage = 324.181
	shift = 0.0
	definitionId = 105023P0740

[CrossSection]
	id = 1055960_78.0
	branchid = 1055960
	chainage = 78.029
	shift = 0.0
	definitionId = 105023P0750

[CrossSection]
	id = 1055970_88.9
	branchid = 1055970
	chainage = 88.877
	shift = 0.0
	definitionId = 105023P0760

[CrossSection]
	id = 1055980_80.7
	branchid = 1055980
	chainage = 80.732
	shift = 0.0
	definitionId = 105023P0770

[CrossSection]
	id = 1055980_177.8
	branchid = 1055980
	chainage = 177.838
	shift = 0.0
	definitionId = 105023P0780

[CrossSection]
	id = 1055980_276.6
	branchid = 1055980
	chainage = 276.624
	shift = 0.0
	definitionId = 105023P0790

[CrossSection]
	id = 1055980_374.3
	branchid = 1055980
	chainage = 374.27
	shift = 0.0
	definitionId = 105023P0800

[CrossSection]
	id = 1055990_7.1
	branchid = 1055990
	chainage = 7.057
	shift = 0.0
	definitionId = 105023P0810

[CrossSection]
	id = 1056010_70.7
	branchid = 1056010
	chainage = 70.651
	shift = 0.0
	definitionId = 105023P0820

[CrossSection]
	id = 1056010_168.9
	branchid = 1056010
	chainage = 168.903
	shift = 0.0
	definitionId = 105023P0830

[CrossSection]
	id = 1056020_62.3
	branchid = 1056020
	chainage = 62.32
	shift = 0.0
	definitionId = 105023P0840

[CrossSection]
	id = 1056020_159.4
	branchid = 1056020
	chainage = 159.449
	shift = 0.0
	definitionId = 105023P0850

[CrossSection]
	id = 1056020_253.0
	branchid = 1056020
	chainage = 252.967
	shift = 0.0
	definitionId = 105023P0860

[CrossSection]
	id = 1056020_349.1
	branchid = 1056020
	chainage = 349.089
	shift = 0.0
	definitionId = 105023P0870

[CrossSection]
	id = 1056020_445.2
	branchid = 1056020
	chainage = 445.17
	shift = 0.0
	definitionId = 105023P0880

[CrossSection]
	id = 1056020_539.3
	branchid = 1056020
	chainage = 539.323
	shift = 0.0
	definitionId = 105023P0890

[CrossSection]
	id = 1056020_633.8
	branchid = 1056020
	chainage = 633.835
	shift = 0.0
	definitionId = 105023P0900

[CrossSection]
	id = 1056020_719.6
	branchid = 1056020
	chainage = 719.647
	shift = 0.0
	definitionId = 105023P0910

[CrossSection]
	id = 1056050_35.3
	branchid = 1056050
	chainage = 35.295
	shift = 0.0
	definitionId = 105023P0920

[CrossSection]
	id = 1056050_106.0
	branchid = 1056050
	chainage = 105.952
	shift = 0.0
	definitionId = 105023P0930

[CrossSection]
	id = 1056050_198.2
	branchid = 1056050
	chainage = 198.174
	shift = 0.0
	definitionId = 105023P0940

[CrossSection]
	id = 1056050_284.9
	branchid = 1056050
	chainage = 284.88
	shift = 0.0
	definitionId = 105023P0950

[CrossSection]
	id = 1056070_55.6
	branchid = 1056070
	chainage = 55.63
	shift = 0.0
	definitionId = 105023P0960

[CrossSection]
	id = 1056070_152.1
	branchid = 1056070
	chainage = 152.092
	shift = 0.0
	definitionId = 105023P0970

[CrossSection]
	id = 1056070_246.0
	branchid = 1056070
	chainage = 245.959
	shift = 0.0
	definitionId = 105023P0980

[CrossSection]
	id = 1056070_343.2
	branchid = 1056070
	chainage = 343.245
	shift = 0.0
	definitionId = 105023P0990

[CrossSection]
	id = 1056080_47.9
	branchid = 1056080
	chainage = 47.906
	shift = 0.0
	definitionId = 105023P1000

[CrossSection]
	id = 1056080_143.7
	branchid = 1056080
	chainage = 143.747
	shift = 0.0
	definitionId = 105023P1010

[CrossSection]
	id = 1056090_91.5
	branchid = 1056090
	chainage = 91.515
	shift = 0.0
	definitionId = 105023P1020

[CrossSection]
	id = 1056095_41.0
	branchid = 1056095
	chainage = 41.02
	shift = 0.0
	definitionId = 105023P1030

[CrossSection]
	id = 1056100_43.1
	branchid = 1056100
	chainage = 43.068
	shift = 0.0
	definitionId = 105023P1040

[CrossSection]
	id = 1056100_134.7
	branchid = 1056100
	chainage = 134.728
	shift = 0.0
	definitionId = 105023P1050

[CrossSection]
	id = 1056110_9.7
	branchid = 1056110
	chainage = 9.685
	shift = 0.0
	definitionId = 105023P1060

[CrossSection]
	id = 1056120_69.5
	branchid = 1056120
	chainage = 69.528
	shift = 0.0
	definitionId = 105023P1070

[CrossSection]
	id = 1056120_150.4
	branchid = 1056120
	chainage = 150.426
	shift = 0.0
	definitionId = 105023P1080

[CrossSection]
	id = 1056120_246.8
	branchid = 1056120
	chainage = 246.772
	shift = 0.0
	definitionId = 105023P1090

[CrossSection]
	id = 1056140_71.3
	branchid = 1056140
	chainage = 71.263
	shift = 0.0
	definitionId = 105023P1100

[CrossSection]
	id = 1056150_44.9
	branchid = 1056150
	chainage = 44.936
	shift = 0.0
	definitionId = 105023P1110

[CrossSection]
	id = 1056150_141.6
	branchid = 1056150
	chainage = 141.551
	shift = 0.0
	definitionId = 105023P1120

[CrossSection]
	id = 1056150_239.3
	branchid = 1056150
	chainage = 239.311
	shift = 0.0
	definitionId = 105023P1130

[CrossSection]
	id = 1056150_328.9
	branchid = 1056150
	chainage = 328.937
	shift = 0.0
	definitionId = 105023P1140

[CrossSection]
	id = 1056150_427.1
	branchid = 1056150
	chainage = 427.051
	shift = 0.0
	definitionId = 105023P1150

[CrossSection]
	id = 1057770_113.9
	branchid = 1057770
	chainage = 113.885
	shift = 0.0
	definitionId = 105023P1160

[CrossSection]
	id = 1057770_211.2
	branchid = 1057770
	chainage = 211.206
	shift = 0.0
	definitionId = 105023P1170

[CrossSection]
	id = 1057770_312.1
	branchid = 1057770
	chainage = 312.084
	shift = 0.0
	definitionId = 105023P1180

[CrossSection]
	id = 1057820_60.0
	branchid = 1057820
	chainage = 59.986
	shift = 0.0
	definitionId = 105023P1190

[CrossSection]
	id = 1057820_153.9
	branchid = 1057820
	chainage = 153.942
	shift = 0.0
	definitionId = 105023P1200

[CrossSection]
	id = 1055110_96.1
	branchid = 1055110
	chainage = 96.137
	shift = 0.0
	definitionId = 105024P0010

[CrossSection]
	id = 1055110_299.0
	branchid = 1055110
	chainage = 298.991
	shift = 0.0
	definitionId = 105024P0020

[CrossSection]
	id = 1055120_22.9
	branchid = 1055120
	chainage = 22.931
	shift = 0.0
	definitionId = 105024P0030

[CrossSection]
	id = 1055120_213.8
	branchid = 1055120
	chainage = 213.77
	shift = 0.0
	definitionId = 105024P0040

[CrossSection]
	id = 1055130_75.6
	branchid = 1055130
	chainage = 75.578
	shift = 0.0
	definitionId = 105024P0050

[CrossSection]
	id = 1055130_253.3
	branchid = 1055130
	chainage = 253.337
	shift = 0.0
	definitionId = 105024P0060

[CrossSection]
	id = 1055210_34.1
	branchid = 1055210
	chainage = 34.051
	shift = 0.0
	definitionId = 105025P0010

[CrossSection]
	id = 1055210_156.3
	branchid = 1055210
	chainage = 156.341
	shift = 0.0
	definitionId = 105025P0020

[CrossSection]
	id = 1055220_116.4
	branchid = 1055220
	chainage = 116.417
	shift = 0.0
	definitionId = 105025P0030

[CrossSection]
	id = 1055220_214.6
	branchid = 1055220
	chainage = 214.563
	shift = 0.0
	definitionId = 105025P0040

[CrossSection]
	id = 1055310_94.1
	branchid = 1055310
	chainage = 94.094
	shift = 0.0
	definitionId = 105026P0010

[CrossSection]
	id = 1055310_284.6
	branchid = 1055310
	chainage = 284.627
	shift = 0.0
	definitionId = 105026P0020

[CrossSection]
	id = 1055410_133.3
	branchid = 1055410
	chainage = 133.276
	shift = 0.0
	definitionId = 105027P0010

[CrossSection]
	id = 1055410_333.2
	branchid = 1055410
	chainage = 333.227
	shift = 0.0
	definitionId = 105027P0020

[CrossSection]
	id = 1055420_72.0
	branchid = 1055420
	chainage = 72.034
	shift = 0.0
	definitionId = 105027P0030

[CrossSection]
	id = 1055420_267.7
	branchid = 1055420
	chainage = 267.719
	shift = 0.0
	definitionId = 105027P0040

[CrossSection]
	id = 1055430_51.5
	branchid = 1055430
	chainage = 51.51
	shift = 0.0
	definitionId = 105027P0050

[CrossSection]
	id = 1055520_79.3
	branchid = 1055520
	chainage = 79.269
	shift = 0.0
	definitionId = 105027P0060

[CrossSection]
	id = 1055520_238.3
	branchid = 1055520
	chainage = 238.293
	shift = 0.0
	definitionId = 105027P0070

[CrossSection]
	id = 1055510_41.9
	branchid = 1055510
	chainage = 41.862
	shift = 0.0
	definitionId = 105028P0010

[CrossSection]
	id = 1055510_178.7
	branchid = 1055510
	chainage = 178.694
	shift = 0.0
	definitionId = 105028P0020

[CrossSection]
	id = 1055710_110.4
	branchid = 1055710
	chainage = 110.422
	shift = 0.0
	definitionId = 105030P0010

[CrossSection]
	id = 1057830_68.1
	branchid = 1057830
	chainage = 68.127
	shift = 0.0
	definitionId = 105031P0010

[CrossSection]
	id = 1055820_4.0
	branchid = 1055820
	chainage = 3.978
	shift = 0.0
	definitionId = 105031P0020

[CrossSection]
	id = 1055820_195.3
	branchid = 1055820
	chainage = 195.326
	shift = 0.0
	definitionId = 105031P0030

[CrossSection]
	id = 1055830_3.8
	branchid = 1055830
	chainage = 3.795
	shift = 0.0
	definitionId = 105031P0040

[CrossSection]
	id = 1055830_166.2
	branchid = 1055830
	chainage = 166.219
	shift = 0.0
	definitionId = 105031P0050

[CrossSection]
	id = 1055845_76.4
	branchid = 1055845
	chainage = 76.421
	shift = 0.0
	definitionId = 105031P0060

[CrossSection]
	id = 1055910_99.3
	branchid = 1055910
	chainage = 99.333
	shift = 0.0
	definitionId = 105032P0010

[CrossSection]
	id = 1055920_6.4
	branchid = 1055920
	chainage = 6.402
	shift = 0.0
	definitionId = 105032P0020

[CrossSection]
	id = 1055920_196.8
	branchid = 1055920
	chainage = 196.778
	shift = 0.0
	definitionId = 105032P0030

[CrossSection]
	id = 1055935_13.2
	branchid = 1055935
	chainage = 13.195
	shift = 0.0
	definitionId = 105032P0040

[CrossSection]
	id = 1055940_23.2
	branchid = 1055940
	chainage = 23.204
	shift = 0.0
	definitionId = 105032P0050

[CrossSection]
	id = 1055940_216.2
	branchid = 1055940
	chainage = 216.21
	shift = 0.0
	definitionId = 105032P0060

[CrossSection]
	id = 1057020_20.9
	branchid = 1057020
	chainage = 20.927
	shift = 0.0
	definitionId = 105033P0050

[CrossSection]
	id = 1057020_219.3
	branchid = 1057020
	chainage = 219.311
	shift = 0.0
	definitionId = 105033P0070

[CrossSection]
	id = 1057020_340.3
	branchid = 1057020
	chainage = 340.303
	shift = 0.0
	definitionId = 105033P0080

[CrossSection]
	id = 1057040_4.8
	branchid = 1057040
	chainage = 4.781
	shift = 0.0
	definitionId = 105033P0100

[CrossSection]
	id = 1057040_124.3
	branchid = 1057040
	chainage = 124.336
	shift = 0.0
	definitionId = 105033P0110

[CrossSection]
	id = 1057120_21.8
	branchid = 1057120
	chainage = 21.815
	shift = 0.0
	definitionId = 105033P0130

[CrossSection]
	id = 1057130_184.0
	branchid = 1057130
	chainage = 184.025
	shift = 0.0
	definitionId = 105033P0150

[CrossSection]
	id = 1057140_60.6
	branchid = 1057140
	chainage = 60.647
	shift = 0.0
	definitionId = 105033P0160

[CrossSection]
	id = 1057140_154.6
	branchid = 1057140
	chainage = 154.625
	shift = 0.0
	definitionId = 105033P0170

[CrossSection]
	id = 1057150_7.5
	branchid = 1057150
	chainage = 7.475
	shift = 0.0
	definitionId = 105033P0180

[CrossSection]
	id = 1057220_3.4
	branchid = 1057220
	chainage = 3.393
	shift = 0.0
	definitionId = 105033P0190

[CrossSection]
	id = 1057220_120.3
	branchid = 1057220
	chainage = 120.261
	shift = 0.0
	definitionId = 105033P0200

[CrossSection]
	id = 1057320_14.3
	branchid = 1057320
	chainage = 14.27
	shift = 0.0
	definitionId = 105033P0210

[CrossSection]
	id = 1057320_98.5
	branchid = 1057320
	chainage = 98.507
	shift = 0.0
	definitionId = 105033P0220

[CrossSection]
	id = 1057320_207.6
	branchid = 1057320
	chainage = 207.613
	shift = 0.0
	definitionId = 105033P0230

[CrossSection]
	id = 1057330_6.8
	branchid = 1057330
	chainage = 6.835
	shift = 0.0
	definitionId = 105033P0240

[CrossSection]
	id = 1057330_109.7
	branchid = 1057330
	chainage = 109.688
	shift = 0.0
	definitionId = 105033P0250

[CrossSection]
	id = 1057330_215.9
	branchid = 1057330
	chainage = 215.914
	shift = 0.0
	definitionId = 105033P0260

[CrossSection]
	id = 1057330_312.0
	branchid = 1057330
	chainage = 311.985
	shift = 0.0
	definitionId = 105033P0270

[CrossSection]
	id = 1057340_62.9
	branchid = 1057340
	chainage = 62.895
	shift = 0.0
	definitionId = 105033P0280

[CrossSection]
	id = 1057350_5.8
	branchid = 1057350
	chainage = 5.77
	shift = 0.0
	definitionId = 105033P0290

[CrossSection]
	id = 1057350_104.7
	branchid = 1057350
	chainage = 104.66
	shift = 0.0
	definitionId = 105033P0300

[CrossSection]
	id = 1057350_194.7
	branchid = 1057350
	chainage = 194.743
	shift = 0.0
	definitionId = 105033P0310

[CrossSection]
	id = 1057360_43.3
	branchid = 1057360
	chainage = 43.285
	shift = 0.0
	definitionId = 105033P0320

[CrossSection]
	id = 1057380_15.0
	branchid = 1057380
	chainage = 14.982
	shift = 0.0
	definitionId = 105033P0330

[CrossSection]
	id = 1057380_79.3
	branchid = 1057380
	chainage = 79.296
	shift = 0.0
	definitionId = 105033P0340

[CrossSection]
	id = 1057380_118.2
	branchid = 1057380
	chainage = 118.18
	shift = 0.0
	definitionId = 105033P0350

[CrossSection]
	id = 1057400_54.1
	branchid = 1057400
	chainage = 54.072
	shift = 0.0
	definitionId = 105033P0360

[CrossSection]
	id = 1057410_10.2
	branchid = 1057410
	chainage = 10.174
	shift = 0.0
	definitionId = 105033P0370

[CrossSection]
	id = 1057410_105.3
	branchid = 1057410
	chainage = 105.349
	shift = 0.0
	definitionId = 105033P0380

[CrossSection]
	id = 1057410_194.1
	branchid = 1057410
	chainage = 194.118
	shift = 0.0
	definitionId = 105033P0390

[CrossSection]
	id = 1057410_282.3
	branchid = 1057410
	chainage = 282.339
	shift = 0.0
	definitionId = 105033P0400

[CrossSection]
	id = 1057420_13.4
	branchid = 1057420
	chainage = 13.437
	shift = 0.0
	definitionId = 105033P0410

[CrossSection]
	id = 1057420_196.4
	branchid = 1057420
	chainage = 196.432
	shift = 0.0
	definitionId = 105033P0430

[CrossSection]
	id = 1057730_75.8
	branchid = 1057730
	chainage = 75.847
	shift = 0.0
	definitionId = 105033P0460

[CrossSection]
	id = 1057730_271.8
	branchid = 1057730
	chainage = 271.784
	shift = 0.0
	definitionId = 105033P0480

[CrossSection]
	id = 1057740_119.2
	branchid = 1057740
	chainage = 119.217
	shift = 0.0
	definitionId = 105033P0500

[CrossSection]
	id = 1057740_318.9
	branchid = 1057740
	chainage = 318.935
	shift = 0.0
	definitionId = 105033P0520

[CrossSection]
	id = 1057750_54.1
	branchid = 1057750
	chainage = 54.084
	shift = 0.0
	definitionId = 105033P0540

[CrossSection]
	id = 1057750_244.2
	branchid = 1057750
	chainage = 244.177
	shift = 0.0
	definitionId = 105033P0560

[CrossSection]
	id = 1057750_314.1
	branchid = 1057750
	chainage = 314.123
	shift = 0.0
	definitionId = 105033P0570

[CrossSection]
	id = 1057110_53.8
	branchid = 1057110
	chainage = 53.753
	shift = 0.0
	definitionId = 105034P0010

[CrossSection]
	id = 1057110_252.0
	branchid = 1057110
	chainage = 252.013
	shift = 0.0
	definitionId = 105034P0030

[CrossSection]
	id = 1057310_16.2
	branchid = 1057310
	chainage = 16.245
	shift = 0.0
	definitionId = 105035P0010

[CrossSection]
	id = 1057510_49.7
	branchid = 1057510
	chainage = 49.684
	shift = 0.0
	definitionId = 105036P0010

[CrossSection]
	id = 1057520_40.1
	branchid = 1057520
	chainage = 40.126
	shift = 0.0
	definitionId = 105036P0020

[CrossSection]
	id = 1057520_235.1
	branchid = 1057520
	chainage = 235.069
	shift = 0.0
	definitionId = 105036P0030

[CrossSection]
	id = 1057530_11.8
	branchid = 1057530
	chainage = 11.812
	shift = 0.0
	definitionId = 105036P0040

[CrossSection]
	id = 1057550_88.8
	branchid = 1057550
	chainage = 88.78
	shift = 0.0
	definitionId = 105036P0050

[CrossSection]
	id = 1057560_82.5
	branchid = 1057560
	chainage = 82.515
	shift = 0.0
	definitionId = 105036P0060

[CrossSection]
	id = 1057560_250.2
	branchid = 1057560
	chainage = 250.154
	shift = 0.0
	definitionId = 105036P0070

[CrossSection]
	id = 1057580_98.1
	branchid = 1057580
	chainage = 98.078
	shift = 0.0
	definitionId = 105036P0080

[CrossSection]
	id = 1057590_62.1
	branchid = 1057590
	chainage = 62.079
	shift = 0.0
	definitionId = 105036P0090

[CrossSection]
	id = 1057600_65.5
	branchid = 1057600
	chainage = 65.46
	shift = 0.0
	definitionId = 105036P0100

[CrossSection]
	id = 1057610_85.8
	branchid = 1057610
	chainage = 85.823
	shift = 0.0
	definitionId = 105036P0110

[CrossSection]
	id = 1057620_71.4
	branchid = 1057620
	chainage = 71.439
	shift = 0.0
	definitionId = 105036P0120

[CrossSection]
	id = 1057640_173.5
	branchid = 1057640
	chainage = 173.466
	shift = 0.0
	definitionId = 105036P0130

[CrossSection]
	id = 1057650_104.3
	branchid = 1057650
	chainage = 104.293
	shift = 0.0
	definitionId = 105036P0140

[CrossSection]
	id = 1057670_61.7
	branchid = 1057670
	chainage = 61.73
	shift = 0.0
	definitionId = 105036P0150

[CrossSection]
	id = 1057660_185.3
	branchid = 1057660
	chainage = 185.304
	shift = 0.0
	definitionId = 105036P0160

[CrossSection]
	id = 1057710_49.0
	branchid = 1057710
	chainage = 48.965
	shift = 0.0
	definitionId = 105037P0010

[CrossSection]
	id = 1057700_155.5
	branchid = 1057700
	chainage = 155.501
	shift = 0.0
	definitionId = 105037P0020

[CrossSection]
	id = 1056119_53.8
	branchid = 1056119
	chainage = 53.781
	shift = 0.0
	definitionId = 105040P0010

[CrossSection]
	id = 1056119_214.0
	branchid = 1056119
	chainage = 213.97
	shift = 0.0
	definitionId = 105040P0020

[CrossSection]
	id = 1056119_301.6
	branchid = 1056119
	chainage = 301.635
	shift = 0.0
	definitionId = 105040P0030

[CrossSection]
	id = 1056119_414.4
	branchid = 1056119
	chainage = 414.353
	shift = 0.0
	definitionId = 105040P0040

[CrossSection]
	id = 1053610_7.9
	branchid = 1053610
	chainage = 7.937
	shift = 0.0
	definitionId = 105041P0010

[CrossSection]
	id = 1053610_87.4
	branchid = 1053610
	chainage = 87.449
	shift = 0.0
	definitionId = 105041P0020

[CrossSection]
	id = 1053620_41.2
	branchid = 1053620
	chainage = 41.177
	shift = 0.0
	definitionId = 105041P0030

[CrossSection]
	id = 1053630_23.1
	branchid = 1053630
	chainage = 23.053
	shift = 0.0
	definitionId = 105042P0010

[CrossSection]
	id = 1053630_77.9
	branchid = 1053630
	chainage = 77.944
	shift = 0.0
	definitionId = 105042P0020

[CrossSection]
	id = 1052765_14.6
	branchid = 1052765
	chainage = 14.598
	shift = 0.0
	definitionId = 105043P0010

[CrossSection]
	id = 1052765_29.1
	branchid = 1052765
	chainage = 29.117
	shift = 0.0
	definitionId = 105043P0020

[CrossSection]
	id = 1052765_55.9
	branchid = 1052765
	chainage = 55.911
	shift = 0.0
	definitionId = 105043P0030

[CrossSection]
	id = 1052765_122.7
	branchid = 1052765
	chainage = 122.729
	shift = 0.0
	definitionId = 105043P0040

[CrossSection]
	id = 1052765_194.0
	branchid = 1052765
	chainage = 194.044
	shift = 0.0
	definitionId = 105043P0050

[CrossSection]
	id = 1052765_289.8
	branchid = 1052765
	chainage = 289.801
	shift = 0.0
	definitionId = 105043P0060

[CrossSection]
	id = 1052765_311.5
	branchid = 1052765
	chainage = 311.49
	shift = 0.0
	definitionId = 105043P0070

[CrossSection]
	id = 1052765_342.2
	branchid = 1052765
	chainage = 342.201
	shift = 0.0
	definitionId = 105043P0080

[CrossSection]
	id = 1052765_430.4
	branchid = 1052765
	chainage = 430.45
	shift = 0.0
	definitionId = 105043P0090

[CrossSection]
	id = 1052765_465.9
	branchid = 1052765
	chainage = 465.872
	shift = 0.0
	definitionId = 105043P0100

[CrossSection]
	id = 1052767_5.8
	branchid = 1052767
	chainage = 5.769
	shift = 0.0
	definitionId = 105043P0110

[CrossSection]
	id = 1052767_29.7
	branchid = 1052767
	chainage = 29.676
	shift = 0.0
	definitionId = 105043P0120

[CrossSection]
	id = 1052767_98.3
	branchid = 1052767
	chainage = 98.346
	shift = 0.0
	definitionId = 105043P0130

[CrossSection]
	id = 1052767_152.9
	branchid = 1052767
	chainage = 152.892
	shift = 0.0
	definitionId = 105043P0140

[CrossSection]
	id = 1052767_192.1
	branchid = 1052767
	chainage = 192.142
	shift = 0.0
	definitionId = 105043P0150

[CrossSection]
	id = 1052767_249.1
	branchid = 1052767
	chainage = 249.098
	shift = 0.0
	definitionId = 105043P0160

[CrossSection]
	id = 1052767_338.4
	branchid = 1052767
	chainage = 338.381
	shift = 0.0
	definitionId = 105043P0170

[CrossSection]
	id = 1052767_409.1
	branchid = 1052767
	chainage = 409.135
	shift = 0.0
	definitionId = 105043P0180

[CrossSection]
	id = 1052767_434.3
	branchid = 1052767
	chainage = 434.336
	shift = 0.0
	definitionId = 105043P0190

[CrossSection]
	id = 1052767_444.3
	branchid = 1052767
	chainage = 444.288
	shift = 0.0
	definitionId = 105043P0200

[CrossSection]
	id = 1052767_479.4
	branchid = 1052767
	chainage = 479.436
	shift = 0.0
	definitionId = 105043P0210

[CrossSection]
	id = 1052767_557.7
	branchid = 1052767
	chainage = 557.729
	shift = 0.0
	definitionId = 105043P0220

[CrossSection]
	id = 1052767_593.6
	branchid = 1052767
	chainage = 593.63
	shift = 0.0
	definitionId = 105043P0230

[CrossSection]
	id = 1052770_39.0
	branchid = 1052770
	chainage = 38.976
	shift = 0.0
	definitionId = 105043P0240

[CrossSection]
	id = 1052770_109.7
	branchid = 1052770
	chainage = 109.744
	shift = 0.0
	definitionId = 105043P0250

