# Generated with D-HyDAMO in delftd3fmpy v.2.0.3 on 2023-04-19T08:42:43.627302Z.
# Tested and compatible with D-Flow FM Deltares, D-Flow FM Version 5.00.024.74498M, DIMRset Deltares, DIMR_EXE Version 2.00.00.140737 (Win64) (Win64) and D-HYDRO suite 1D2D D-HYDRO Suite 2022.03 1D2D,.
# 
[General]
fileVersion = 3.00
fileType = roughness

[Global]
	frictionId = Strickler_100.0
	frictionType = Strickler
	frictionValue = 100.0

